4
Start
O          0.090590028748         -0.512595185362          0.166951279348
C         -0.004815698674          0.573146381583          0.464670525269
H         -0.178184700841          0.815642894673          3.025668602389
H         -0.181402588033          1.313602805748          2.497190634377
4
End
O          0.090322130568         -0.463790398908          0.114373891097
C         -0.022062916437          0.521417623552          0.807995877788
H         -0.082953176458          0.453908473571          1.885711641534
H         -0.066755510233          1.514490506224          0.381906807964
