4
0
O	         0.090590	        -0.512595	         0.166951
C	        -0.004816	         0.573146	         0.464671
H	        -0.178185	         0.815643	         3.025669
H	        -0.181403	         1.313603	         2.497191
4
1
O	         0.090560	        -0.507172	         0.161109
C	        -0.006732	         0.567399	         0.502818
H	        -0.167603	         0.775450	         2.899007
H	        -0.168664	         1.335924	         2.262159
4
2
O	         0.090530	        -0.501750	         0.155267
C	        -0.008648	         0.561651	         0.540965
H	        -0.157022	         0.735257	         2.772345
H	        -0.155925	         1.358245	         2.027128
4
3
O	         0.090501	        -0.496327	         0.149425
C	        -0.010565	         0.555903	         0.579112
H	        -0.146441	         0.695065	         2.645683
H	        -0.143187	         1.380565	         1.792096
4
4
O	         0.090471	        -0.490904	         0.143584
C	        -0.012481	         0.550156	         0.617260
H	        -0.135860	         0.654872	         2.519021
H	        -0.130448	         1.402886	         1.557064
4
5
O	         0.090441	        -0.485481	         0.137742
C	        -0.014397	         0.544408	         0.655407
H	        -0.125278	         0.614679	         2.392359
H	        -0.117710	         1.425207	         1.322033
4
6
O	         0.090411	        -0.480059	         0.131900
C	        -0.016314	         0.538661	         0.693554
H	        -0.114697	         0.574487	         2.265697
H	        -0.104971	         1.447528	         1.087001
4
7
O	         0.090382	        -0.474636	         0.126058
C	        -0.018230	         0.532913	         0.731701
H	        -0.104116	         0.534294	         2.139035
H	        -0.092233	         1.469849	         0.851970
4
8
O	         0.090352	        -0.469213	         0.120216
C	        -0.020147	         0.527165	         0.769849
H	        -0.093534	         0.494101	         2.012374
H	        -0.079494	         1.492170	         0.616938
4
9
O	         0.090322	        -0.463790	         0.114374
C	        -0.022063	         0.521418	         0.807996
H	        -0.082953	         0.453908	         1.885712
H	        -0.066756	         1.514491	         0.381907
