3
0
O	        -1.039820	        -0.003412	        -0.397360
H	        -1.537154	         0.653503	         0.074779
H	        -1.609033	        -0.599135	        -0.869504
3
1
O	-658306641881126481992613888.000000	-4174417647440239779643392.000000	-80619023281370026385342464.000000
H	-1602533217583798571172364288.000000	-114296715901189538820653056.000000	-96357253394638894161461248.000000
H	805865346509853021920296960.000000	-22913545330189014759636992.000000	-144707259897665453213876224.000000
3
2
O	796767675933378131043287040.000000	47042548087576919757815808.000000	-59247828570053368445140992.000000
H	8648662123640179212492472320.000000	-243235824726263344767434752.000000	275196089039765214165204992.000000
H	3191186215333931958470180864.000000	-202051492258725110065659904.000000	532879273276408085730033664.000000
3
3
O	-4329343355963382098414272512.000000	-172354191051211644237512704.000000	53687162904480200720908288.000000
H	-33665347012762743578235502592.000000	600111676570633809306845184.000000	-1192067169491557733889998848.000000
H	-9029058241028688438427123712.000000	633566608582861718758096896.000000	-2224424941375044800496009216.000000
3
4
O	6126712445488153476659675136.000000	366255667916493750930505728.000000	-444084077030534289891000320.000000
H	67243382184861775347943735296.000000	-1888164662042176609530675200.000000	2125767140243065638349701120.000000
H	25020151918394939681290584064.000000	-1584202671230323661694042112.000000	4110647679677555188149780480.000000
3
5
O	-1282353483787192270174814208.000000	-510110889724634045849010176.000000	1206149067916922174868291584.000000
H	-83633368091567073539315990528.000000	3919209942411443434229334016.000000	-1949589367193596849507270656.000000
H	-48830286719348295058541510656.000000	2806495454043466069616623616.000000	-4100038173410882488738250752.000000
3
6
O	1147681999008124842081779712.000000	520447518027985442285027328.000000	-1222863663450944909242007552.000000
H	85118468804969923505412898816.000000	-4010175307447615646838292480.000000	1961265506762620497966399488.000000
H	50153517340889956671077482496.000000	-2880883243152129691442216960.000000	4128517672175143998386601984.000000
3
7
O	-4915917518952912551757742080.000000	-400037408105944647557185536.000000	645875928379646086322585600.000000
H	-70980977862690731449466748928.000000	2392001593560781420318687232.000000	-2078609824093004002395947008.000000
H	-30733157940567970815953338368.000000	1873851851615706928914628608.000000	-4106900949851917043263078400.000000
3
8
O	5674650249116174435156492288.000000	233972033720093283155181568.000000	-101523081462493115215511552.000000
H	45413781956665026831395586048.000000	-860697677866287354509000704.000000	1593205350485365659994685440.000000
H	12633341995114794223235235840.000000	-874336737129457801454682112.000000	2985256524232284597995438080.000000
3
9
O	        -1.158815	         0.003416	        -0.397360
H	        -0.589605	         0.599133	         0.074779
H	        -0.661480	        -0.653506	        -0.869504
