3
0
O	        -1.039820	        -0.003412	        -0.397360
H	        -1.537154	         0.653503	         0.074779
H	        -1.609033	        -0.599135	        -0.869504
3
1
O	     35636.504851	      -586.414243	      9428.551396
H	    -41832.536183	     15236.456365	      1617.424573
H	   -121895.748262	      5272.218167	      -908.045225
3
2
O	    -41047.145646	       353.578123	    -12895.642485
H	     -5184.050762	    -17278.907846	     -2231.462031
H	    104723.060144	     -3653.620087	      1203.307890
3
3
O	      6218.921987	      -490.587547	      -765.419456
H	    -71649.037716	      3020.330779	      -174.121929
H	    -64253.948010	      3830.015830	        -6.967763
3
4
O	    -22428.472217	        95.153642	     -7620.796862
H	    -19061.689733	     -9321.680186	     -1343.461915
H	     46406.211394	     -1268.641495	       664.822975
3
5
O	     28361.818034	      -292.189505	      8502.191199
H	     -4419.514186	     11894.346009	      1514.778936
H	    -77792.451401	      2904.966383	      -714.870133
3
6
O	      2599.588959	        85.090736	      1488.363648
H	     18145.924347	       999.140143	       266.742735
H	      5267.973629	      -575.854668	      -123.136653
3
7
O	     -7230.080495	      -713.845680	     -7351.252840
H	   -129704.509042	     -2535.745057	     -1237.337510
H	    -67774.155993	      5227.107371	       749.097008
3
8
O	      4951.727171	       745.806440	      6697.493941
H	    131453.694619	      1555.351021	      1132.078855
H	     74929.948561	     -5520.574407	      -675.839118
3
9
O	        -1.158815	         0.003416	        -0.397360
H	        -0.589605	         0.599133	         0.074779
H	        -0.661480	        -0.653506	        -0.869504
