3
0
O	        -1.039820	        -0.003412	        -0.397360
H	        -1.537154	         0.653503	         0.074779
H	        -1.609033	        -0.599135	        -0.869504
3
1
O	3786490189403048642750938927912477572762892000000000000000000000000000000000000.000000	-235496144592209029863839070868264514612712000000000000000000000000000000000000.000000	-8522388798537487717159267845638988273705088000000000000000000000000000000000000.000000
H	-38216038872171605630678934817424919810330610000000000000000000000000000000000000.000000	-5152191641110320728309676206349364292489457000000000000000000000000000000000000.000000	2177785369172085474441264906000289290693211000000000000000000000000000000000000.000000
H	-41871388538832326706045708526912763559989060000000000000000000000000000000000000.000000	3578184341314022930020308855755185358240053000000000000000000000000000000000000.000000	7543155957825425245412634019247072431820457000000000000000000000000000000000000.000000
3
2
O	2634189347860090764813825901481253893585835000000000000000000000000000000000000.000000	405242328710048700921354447286886375562606900000000000000000000000000000000000.000000	7562104283077053928959780564099103250406656000000000000000000000000000000000000.000000
H	73703965546999272058121570649607206510749920000000000000000000000000000000000000.000000	4056820841929961145843867744128022161051051000000000000000000000000000000000000.000000	-419958052251140974654489251539641494510302200000000000000000000000000000000000.000000
H	45355779121166044172439844628772337286490420000000000000000000000000000000000000.000000	-3803396010890522662979606256945962805633092000000000000000000000000000000000000.000000	-3899110508010884454203172305759870508699083000000000000000000000000000000000000.000000
3
3
O	-2714686825375532002383450788148738741134555000000000000000000000000000000000000.000000	-388072197070325804652481810654263460890477800000000000000000000000000000000000.000000	-4936738865131636916268507626364222988144037000000000000000000000000000000000000.000000
H	-69454997135719324507912594310944445022538150000000000000000000000000000000000000.000000	-2015224320708419261717154708308400893939556000000000000000000000000000000000000.000000	-231500788623152656239230569355103601318500100000000000000000000000000000000000.000000
H	-40386223676384743157399133537269303075652460000000000000000000000000000000000000.000000	3154032426591006784664476331395126810867493000000000000000000000000000000000000.000000	1611245739643212868997596630219245785094761000000000000000000000000000000000000.000000
3
4
O	1392243960924086675471103522731595902000108000000000000000000000000000000000000.000000	316967214350324004824978595126023254171963400000000000000000000000000000000000.000000	4615153390132312434445232972572849158816706000000000000000000000000000000000000.000000
H	55978427145148059671875297565279955785658970000000000000000000000000000000000000.000000	2032406229889895015532095841240529560673410000000000000000000000000000000000000.000000	-95912484982239171666099889221679962263036110000000000000000000000000000000000.000000
H	35327222532976625671763437949699966620308120000000000000000000000000000000000000.000000	-2776673070612458027522184014741115926536001000000000000000000000000000000000000.000000	-2083297951804868160424576080187114653078792000000000000000000000000000000000000.000000
3
5
O	28603304980422585274523758053816947509619860000000000000000000000000000000000000.000000	-496218053801711626110393208726167787971577500000000000000000000000000000000000.000000	-13342997370648934845258394222455510944148950000000000000000000000000000000000000.000000
H	-50254948206081624959086268709528084283636330000000000000000000000000000000000000.000000	-4773823292669577301464565130309319505294387000000000000000000000000000000000000.000000	6695269449991090998256145387388774935116047000000000000000000000000000000000000.000000
H	-124606457690003918719876129459624515518261100000000000000000000000000000000000000.000000	8647483305436994951451762647919214679069863000000000000000000000000000000000000.000000	17879496789691522361282519095333537393577560000000000000000000000000000000000000.000000
3
6
O	-22789659441015614759470560266316045177973220000000000000000000000000000000000000.000000	1076675190897662404705474731859154374891701000000000000000000000000000000000000.000000	41626770813908403290975275698192268325389470000000000000000000000000000000000000.000000
H	169013533596952314605071450640070084903040600000000000000000000000000000000000000.000000	25130368123763107755704111124381527771069580000000000000000000000000000000000000.000000	-11533146562866758612347566124787318898520730000000000000000000000000000000000000.000000
H	205582487793685440477253388781711307950889300000000000000000000000000000000000000.000000	-17444974230871264420606903413488291500924480000000000000000000000000000000000000.000000	-38499002735634846017571718805722367722025240000000000000000000000000000000000000.000000
3
7
O	25209430667087500849021995422801794697930160000000000000000000000000000000000000.000000	-1796427734425412736137809219535100455834777000000000000000000000000000000000000.000000	-44985198382153937770090029887107525294379340000000000000000000000000000000000000.000000
H	-284413033976813498371745059588564107597226700000000000000000000000000000000000000.000000	-23281287111809767011765129686932955846824190000000000000000000000000000000000000.000000	10785107914743795529101763296821205219044550000000000000000000000000000000000000.000000
H	-288870307466481110572578750821527450903481700000000000000000000000000000000000000.000000	22854578015158000723636925795360263444624230000000000000000000000000000000000000.000000	38503921526466598196165327673409229431859960000000000000000000000000000000000000.000000
3
8
O	-34354011145940383195131708526226461242540720000000000000000000000000000000000000.000000	1481614165942446425366776916337606976173510000000000000000000000000000000000000.000000	44908511250133634784705593706589173312952420000000000000000000000000000000000000.000000
H	221167482877386440417413085012523358484987600000000000000000000000000000000000000.000000	24096341604540796189136400727773301676140110000000000000000000000000000000000000.000000	-13115466441499579670496182370208700008940260000000000000000000000000000000000000.000000
H	274677481215337471515609892302693824295862000000000000000000000000000000000000000.000000	-21784528036806935721918580326878824355544610000000000000000000000000000000000000.000000	-42777385977119236824991486168901579746022830000000000000000000000000000000000000.000000
3
9
O	        -1.158815	         0.003416	        -0.397360
H	        -0.589605	         0.599133	         0.074779
H	        -0.661480	        -0.653506	        -0.869504
