3
0
O	        -1.039820	        -0.003412	        -0.397360
H	        -1.537154	         0.653503	         0.074779
H	        -1.609033	        -0.599135	        -0.869504
3
1
O	-89670537757617494911201873465222048682826200000000000000000000000000000000000000.000000	-3473974909838871892514833023650895766078671000000000000000000000000000000000000.000000	-18427969666764322761273456201660998888468260000000000000000000000000000000000000.000000
H	-693471233134832679312892348593186120414864400000000000000000000000000000000000000.000000	-4179271121724717535450795458136748378768088000000000000000000000000000000000000.000000	-19311826721836258222106815241982748047264840000000000000000000000000000000000000.000000
H	-199630712211336983611255871181849508820753800000000000000000000000000000000000000.000000	16502198054753764287681643499294896961350810000000000000000000000000000000000000.000000	-28065765747980721856016501209646681441207480000000000000000000000000000000000000.000000
3
2
O	113332690991355194984920442492004342551355500000000000000000000000000000000000000.000000	2876329441718148177101140866524526645653951000000000000000000000000000000000000.000000	-5109011798863487761562750625797553404926943000000000000000000000000000000000000.000000
H	614080803640878365882934215895407652023448100000000000000000000000000000000000000.000000	-8897430125539138443046795395764346975085735000000000000000000000000000000000000.000000	27595336951741014359743804653629880645332960000000000000000000000000000000000000.000000
H	62752282129558872905168625521583906264455350000000000000000000000000000000000000.000000	-5638136960936745274255074914729910298866235000000000000000000000000000000000000.000000	53089856056919291281873530336527588520088750000000000000000000000000000000000000.000000
3
3
O	89944003711359958144069883594549635107858930000000000000000000000000000000000000.000000	-1904897795523207888860880985751528170680502000000000000000000000000000000000000.000000	-66624447832801026262968482443739911324162230000000000000000000000000000000000000.000000
H	-228640137491908890584355230116492408303863400000000000000000000000000000000000000.000000	-33174321650053592131158537371589985991647320000000000000000000000000000000000000.000000	26539953893521950226863914895484998999717050000000000000000000000000000000000000.000000
H	-455959604343767173420467296806925244982037900000000000000000000000000000000000000.000000	34360195998918629284876584804700514848949410000000000000000000000000000000000000.000000	76546525300232526639032943478921473757071590000000000000000000000000000000000000.000000
3
4
O	-289785002112933397681537191735571592849230200000000000000000000000000000000000000.000000	7560823166786306957468722776381108966513629000000000000000000000000000000000000.000000	229567038219030972950005353157006438998068900000000000000000000000000000000000000.000000
H	976225071456512620926529472852596987804309300000000000000000000000000000000000000.000000	110544266965191569429374834410907291337073200000000000000000000000000000000000000.000000	-85422288387379621846610381386941709058255290000000000000000000000000000000000000.000000
H	1633623782144887714292623744105796547875829000000000000000000000000000000000000000.000000	-122610813513358274446798240988521431783782800000000000000000000000000000000000000.000000	-252622600884248987501138072737272662801630400000000000000000000000000000000000000.000000
3
5
O	432714843560603263733502400178116701415691800000000000000000000000000000000000000.000000	-13602179937430159432308373253435442440394520000000000000000000000000000000000000.000000	-670695966279487171926389085405824947091401100000000000000000000000000000000000000.000000
H	-2028979185501791621013437300842304962072092000000000000000000000000000000000000000.000000	-420166558264950009611052268160353510299658300000000000000000000000000000000000000.000000	206835632225631501268608873479385821874523200000000000000000000000000000000000000.000000
H	-3057083531334811804027704675726008580626117000000000000000000000000000000000000000.000000	264236378202171525953883249197958748349633000000000000000000000000000000000000000.000000	659119479420630034702679046109930446633178500000000000000000000000000000000000000.000000
3
6
O	-451504945636515608664893064579889338294445700000000000000000000000000000000000000.000000	11322919321566279613935118803586134667288510000000000000000000000000000000000000.000000	799788542768829950247571357619359643785522700000000000000000000000000000000000000.000000
H	1712061366033053973908619344334953528885046000000000000000000000000000000000000000.000000	537716198461725671771583729877329476164230900000000000000000000000000000000000000.000000	-249996288254922784852497520742136192519216600000000000000000000000000000000000000.000000
H	3008034458055805612749366550436480805633656000000000000000000000000000000000000000.000000	-278171066464118462472963670581819037146275400000000000000000000000000000000000000.000000	-792174897438669635350630069709408166598216800000000000000000000000000000000000000.000000
3
7
O	289388338414725890930824853766145398784114600000000000000000000000000000000000000.000000	-15925485383823397560570777183926994971705250000000000000000000000000000000000000.000000	-58593033829761298942266674697338656482528680000000000000000000000000000000000000.000000
H	-2229437353579766629444444383492880398419036000000000000000000000000000000000000000.000000	80067264134856174205171449284089224529541620000000000000000000000000000000000000.000000	17226252621594091537330731056844458818736280000000000000000000000000000000000000.000000
H	-2301600157494128970921447906102091089075836000000000000000000000000000000000000000.000000	139904625739812031702500173957696432210560300000000000000000000000000000000000000.000000	56015805091583383669778628714190778534046840000000000000000000000000000000000000.000000
3
8
O	-492381294925166089564516682291517838296372300000000000000000000000000000000000000.000000	19688202065893815465621089952522251372617050000000000000000000000000000000000000.000000	691651201193915475945509094270005773133413800000000000000000000000000000000000000.000000
H	2948020002340333794827320210805031881332699000000000000000000000000000000000000000.000000	394059804401040409215314239791561585231288500000000000000000000000000000000000000.000000	-204862189979276217006139692031506796172675200000000000000000000000000000000000000.000000
H	3832027318415730437525774366774071594138195000000000000000000000000000000000000000.000000	-312354893682130077100848466679318801782634200000000000000000000000000000000000000.000000	-664126055140241312147059956565370243220684800000000000000000000000000000000000000.000000
3
9
O	        -1.158815	         0.003416	        -0.397360
H	        -0.589605	         0.599133	         0.074779
H	        -0.661480	        -0.653506	        -0.869504
