3
0
O	        -1.039820	        -0.003412	        -0.397360
H	        -1.537154	         0.653503	         0.074779
H	        -1.609033	        -0.599135	        -0.869504
3
1
O	-5835889947804436410512584307324826069237119000000000000000000000000000.000000	-540644193103148291450139011208090266753256000000000000000000000000000.000000	-14635618583504296103949748104321087271300450000000000000000000000000000.000000
H	-104152936234466586866312395997102084156365100000000000000000000000000000.000000	-9401218215137720259763231050296315003406534000000000000000000000000000.000000	1376436308915085155074603880439941489726752000000000000000000000000000.000000
H	-61062161779535626656787810860924771275842560000000000000000000000000000.000000	5769234340131495968560362049939326875801751000000000000000000000000000.000000	8587693733037066756027922843332861401075409000000000000000000000000000.000000
3
2
O	11831346399963468621950960288345857441795310000000000000000000000000000.000000	329939598429399429452752834600590641187770200000000000000000000000000.000000	9525925001804799347778097351535144861037035000000000000000000000000000.000000
H	74945857143930875442851440510284603534588850000000000000000000000000000.000000	7145590079522081409688716799796585280205392000000000000000000000000000.000000	333113867357828273540985230640144015648034000000000000000000000000000.000000
H	21228564860843456075869188632759816069205610000000000000000000000000000.000000	-2820926709657135833437453179130765189654891000000000000000000000000000.000000	-3319128657100815649737839885859357661841911000000000000000000000000000.000000
3
3
O	15518702278242802360330023026448576599209800000000000000000000000000000.000000	-177008492446040945993549498286176200853567500000000000000000000000000.000000	-3994375876197376939762801393549221594799498000000000000000000000000000.000000
H	-10379528124810775452770475900218890437769840000000000000000000000000000.000000	-483206013820689386959471096771259664543687100000000000000000000000000.000000	3042073202110427331826234105046017545522705000000000000000000000000000.000000
H	-54313839038436730094164641893578695289114240000000000000000000000000000.000000	3456508650095281651490419458668311059101533000000000000000000000000000.000000	7269525221184801884449432480133000659315708000000000000000000000000000.000000
3
4
O	35182341774799347279370201516187268375131750000000000000000000000000000.000000	79606004803189752138901621183815277939577840000000000000000000000000.000000	3095978351236321657161753892767447991399789000000000000000000000000000.000000
H	61670211938715836906828310858531972409223750000000000000000000000000000.000000	5977808014501839961662366260768992256806277000000000000000000000000000.000000	5065086197754828411080180913108177588979715000000000000000000000000000.000000
H	-59323886853932617265039242917358417553387080000000000000000000000000000.000000	2365699323045023241996350052794483488488864000000000000000000000000000.000000	8078188330424530491212437816186887884050723000000000000000000000000000.000000
3
5
O	-49239550069809323668316704127927873778960680000000000000000000000000000.000000	-80056709548679373252901954697063430811726000000000000000000000000000.000000	-3167518001090342163050968826359772680748039000000000000000000000000000.000000
H	-80531558931752445879002343065819469919666380000000000000000000000000000.000000	-7598911842203504976965620580453413710145291000000000000000000000000000.000000	-7305867927515130258437646209060018291484759000000000000000000000000000.000000
H	87618084728650684341326019439423678335616190000000000000000000000000000.000000	-3743565324246088271669010843681827516358906000000000000000000000000000.000000	-12188126011526471388918120425700010403388350000000000000000000000000000.000000
3
6
O	-1310854026535929163037922659029280970274788000000000000000000000000000.000000	210192300605970093428787718627894948761805600000000000000000000000000.000000	6269550130066206062241843085175229943612094000000000000000000000000000.000000
H	36066618567897576198178856134680973176718760000000000000000000000000000.000000	3731897058851713693619218209965704164696457000000000000000000000000000.000000	-1261754696410894421938675312682570402082826000000000000000000000000000.000000
H	31646587711842005300108727055513718597072810000000000000000000000000000.000000	-2716223138917318059263675969816351862899067000000000000000000000000000.000000	-4920413709460169811497386080538323931704555000000000000000000000000000.000000
3
7
O	20602152668749874174602757152638475458559320000000000000000000000000000.000000	-1108331740902696153530630190670697641069149000000000000000000000000000.000000	-36076420069457140585060695982630355122384640000000000000000000000000000.000000
H	-173730895669093688533179480223967643909872800000000000000000000000000000.000000	-20629483970760528541911904083531612085942650000000000000000000000000000.000000	9641550626795579563816482435229973793570971000000000000000000000000000.000000
H	-198033157644443969972096709374546968407750500000000000000000000000000000.000000	16295449226989698145695503170237952774410250000000000000000000000000000.000000	32711989361749638693879319048609425543263960000000000000000000000000000.000000
3
8
O	-13200219606987135082360782419266075207205190000000000000000000000000000.000000	1140700303842102739539153472715982894443741000000000000000000000000000.000000	36534452474689116009656276635070609918362140000000000000000000000000000.000000
H	189120391092917861083565967968036033563414700000000000000000000000000000.000000	21634447564879867771025136308730131660393960000000000000000000000000000.000000	-8481627543217806279823884482787206144369453000000000000000000000000000.000000
H	186946365206411072613335360188118060612569200000000000000000000000000000.000000	-15855741023524350085907547589396548364305730000000000000000000000000000.000000	-30758388933743537801354608583581283425006090000000000000000000000000000.000000
3
9
O	        -1.158815	         0.003416	        -0.397360
H	        -0.589605	         0.599133	         0.074779
H	        -0.661480	        -0.653506	        -0.869504
