3
0
O	        -1.039820	        -0.003412	        -0.397360
H	        -1.537154	         0.653503	         0.074779
H	        -1.609033	        -0.599135	        -0.869504
3
1
O	-5668545098929431475975836965674125720880327000000000000000000000000000000.000000	-48858070898118608490744332683783647632866700000000000000000000000000000.000000	-1487662800125187103641165113956723456162351000000000000000000000000000000.000000
H	-16367067563229360112521933681657125781562960000000000000000000000000000000.000000	-1557410243462457408388218553276400948369643000000000000000000000000000000.000000	-658353321544763894493134086944145922271067500000000000000000000000000000.000000
H	4686703466435114209874060549301957345385448000000000000000000000000000000.000000	44677350745634712387443498150623336094772350000000000000000000000000000.000000	-601750273184679067216692702663851655576280600000000000000000000000000000.000000
3
2
O	6915389644408053958825363549514310887685623000000000000000000000000000000.000000	43616053963475684721509531120190836817490670000000000000000000000000000.000000	1346177243338379730079095473485788253660911000000000000000000000000000000.000000
H	17095600135582201719475619714943601306896440000000000000000000000000000000.000000	1611724647610154600477702862386636374504711000000000000000000000000000000.000000	880979480894173856607979248489816510176816300000000000000000000000000000.000000
H	-7913777634684752430700012083256118898609831000000000000000000000000000000.000000	140545693524293329789309424294712602958066100000000000000000000000000000.000000	1071454347898689165391364809316030557610795000000000000000000000000000000.000000
3
3
O	-3010461896716695441730349434801427535512751000000000000000000000000000000.000000	-35853724555734906623351518845751712320119920000000000000000000000000000.000000	-1089243430193442423380762628845566027927038000000000000000000000000000000.000000
H	-10476625799590534144181414379550684311845680000000000000000000000000000000.000000	-1012903426549294844635734636671953962445499000000000000000000000000000000.000000	-299132371354364199427578303753387294919736000000000000000000000000000000.000000
H	1118211753568594005960891761749920019031702000000000000000000000000000000.000000	146360015100735684214660630962941151758310900000000000000000000000000000.000000	-102706889400061658743120975861711286175570300000000000000000000000000000.000000
3
4
O	359828830230657999976694949742588305315629200000000000000000000000000000.000000	865049294512434635276597490695408187297058100000000000000000000000000.000000	29634491724735239572731283793328429475604010000000000000000000000000000.000000
H	637760059240133926871448792014932657864944300000000000000000000000000000.000000	59166543826123899825827967601619421499520960000000000000000000000000000.000000	52476641060793154070832957138753064232803780000000000000000000000000000.000000
H	-603811873191116799286016208192892246456392000000000000000000000000000000.000000	24291334209881300701139635896451778165455640000000000000000000000000000.000000	84702169368834376325454835403190106582010840000000000000000000000000000.000000
3
5
O	-35073412870863592917618596863793014393257670000000000000000000000000000.000000	-77766042727832699456329957747900305952176100000000000000000000000000000.000000	-2559934366840979374018946394755470548441576000000000000000000000000000000.000000
H	-14181416252724522889020095305299992103322740000000000000000000000000000000.000000	-1635811431752241577714308423448954731120047000000000000000000000000000000.000000	446131910704130291276077418095562562488402300000000000000000000000000000.000000
H	-10934234176303436949521743758833861196047080000000000000000000000000000000.000000	1002239623534703903994815149374550652795104000000000000000000000000000000.000000	1881496136358397028178928132622490209167206000000000000000000000000000000.000000
3
6
O	2141325822465669571122241401847256326551552000000000000000000000000000000.000000	229745441094079771797977965680350509846982700000000000000000000000000000.000000	7583422734715588792613197225632894573504795000000000000000000000000000000.000000
H	44626018819773940960388990212020759605140750000000000000000000000000000000.000000	5076456298816286126999348263362819083713042000000000000000000000000000000.000000	-996044767685063653868123325792239536039518900000000000000000000000000000.000000
H	28206705158528557536735007450577070874996720000000000000000000000000000000.000000	-2762867777432971346465697426978526921919416000000000000000000000000000000.000000	-4972241626532693206693434057527886417032914000000000000000000000000000000.000000
3
7
O	-2513877160705661018759411991600295497378028000000000000000000000000000000.000000	-341819599694143219814773349236756544440170200000000000000000000000000000.000000	-11255784553857935385684734537920894614087440000000000000000000000000000000.000000
H	-65483099794342220048677381846422707426802530000000000000000000000000000000.000000	-7455892700992066323077696870971879151353640000000000000000000000000000000.000000	1582837946440191577450222576489797592258684000000000000000000000000000000.000000
H	-43294172275025134001883898745684980819485240000000000000000000000000000000.000000	4171857927388399229701707362612805397629741000000000000000000000000000000.000000	7573056510830570918059292585500372740526610000000000000000000000000000000.000000
3
8
O	2070386838401446631237777817184904379084552000000000000000000000000000000.000000	264608884960552474153452505835904729886786800000000000000000000000000000.000000	8725416808660759796969941137450212263251328000000000000000000000000000000.000000
H	50864759695739254028371319822292896392871860000000000000000000000000000000.000000	5795521414573385208827488159764127716457779000000000000000000000000000000.000000	-1208494097661114767275234243829943837429523000000000000000000000000000000.000000
H	33277358610554565849230169223545458120869300000000000000000000000000000000.000000	-3219634380248385725521164336332036720884310000000000000000000000000000000.000000	-5836389564954799028223890225044988895094515000000000000000000000000000000.000000
3
9
O	        -1.158815	         0.003416	        -0.397360
H	        -0.589605	         0.599133	         0.074779
H	        -0.661480	        -0.653506	        -0.869504
