3
0
O	        -1.039820	        -0.003412	        -0.397360
H	        -1.537154	         0.653503	         0.074779
H	        -1.609033	        -0.599135	        -0.869504
3
1
O	-1510707622162409193472.000000	-42176201225331466240.000000	91702349052572499968.000000
H	-8792813276166976700416.000000	161063206614570401792.000000	-384750882381519585280.000000
H	-1206326798697710485504.000000	94254727380045070336.000000	-748666937398430924800.000000
3
2
O	2418406511335905951744.000000	88263112334598307840.000000	-129975897875175456768.000000
H	17447152209174277914624.000000	-368983881683196182528.000000	669606816407259316224.000000
H	4098468983001732087808.000000	-283608878047293079552.000000	1290727272178835521536.000000
3
3
O	-6734755508730900512768.000000	-231751551378867519488.000000	2067717072976546365440.000000
H	-45288540167344754786304.000000	2342451318164234960896.000000	-2271498473367421583360.000000
H	-7991395968371167068160.000000	355083109190988595200.000000	-5050430676821375713280.000000
3
4
O	3496766208064851279872.000000	340947318297641484288.000000	-3682216139133741432832.000000
H	57693998465233278992384.000000	-4685267278822813204480.000000	2479274267899591655424.000000
H	23981471897495768399872.000000	-1028419188633390415872.000000	6101193108312327979008.000000
3
5
O	-6186789303126119677952.000000	-214706627910736347136.000000	-6920237676515650699264.000000
H	-47186419833364182728704.000000	-5073346880676139368448.000000	214823201858750611456.000000
H	-17704636740635572830208.000000	2132626083098879852544.000000	3255138911355473494016.000000
3
6
O	19075736039951922364416.000000	422429366772019429376.000000	4477004778036830142464.000000
H	96563354367073131167744.000000	3252735478941453123584.000000	3076253014443476123648.000000
H	10331273816372412416000.000000	-1650688827899579203584.000000	3833892667133826957312.000000
3
7
O	-26806459463366246137856.000000	-681917284187786051584.000000	6237589233786188464128.000000
H	-142488173539463603945472.000000	6240191901851424129024.000000	-7846774996349035216896.000000
H	-9204051632825973080064.000000	319819658866993266688.000000	-17072481174462511710208.000000
3
8
O	21941544948395824644096.000000	608090933594934607872.000000	741820850192915759104.000000
H	128225255801793930067968.000000	-610951555069553147904.000000	5033268799690054303744.000000
H	19449763998149675843584.000000	-1763132215476489289728.000000	8992088879059860193280.000000
3
9
O	        -1.158815	         0.003416	        -0.397360
H	        -0.589605	         0.599133	         0.074779
H	        -0.661480	        -0.653506	        -0.869504
