3
0
O	        -1.039820	        -0.003412	        -0.397360
H	        -1.537154	         0.653503	         0.074779
H	        -1.609033	        -0.599135	        -0.869504
3
1
O	4134658264683315864879499865778200004754418000000000000000.000000	-1387652405192526899178557187594899785266820000000000000000.000000	-10478054150481100183458490791523102468751140000000000000000.000000
H	-225593579215886073632273335016650378902419900000000000000000.000000	221504079650650703628782143345836601554501000000000000000.000000	-480496204263385897522879127305383434704690500000000000000.000000
H	-164121317928970617914107396861836746883335800000000000000000.000000	11191618376721161470549679518289085710736730000000000000000.000000	3439554766717839202165113814224858651152067000000000000000.000000
3
2
O	40938660639738760161774842583161779136000160000000000000000.000000	593009526017200435416465098337880102301110900000000000000.000000	21859052307018333591398064336909869329859460000000000000000.000000
H	163778861616364909460536957004494017101818400000000000000000.000000	18920598973445475731337785697347591642737840000000000000000.000000	2520170096227368044700399090069203714011911000000000000000.000000
H	3840909144039968498030672262621496536420207000000000000000.000000	-4081747829110674713361049336456027649729792000000000000000.000000	-4372947220660708039510435541725580119228894000000000000000.000000
3
3
O	-117713956937102629836928362677601141618605900000000000000000.000000	-2622330863711394401690874149737136235794205000000000000000.000000	-97804106809507270234775803987075027439016970000000000000000.000000
H	-640489184975675748673249223019643464690783800000000000000000.000000	-77555045722514291725547045672986654506908250000000000000000.000000	-673722023106058874171928867244499012013273500000000000000.000000
H	-146333460221375383825981807558633417401095800000000000000000.000000	24566929922746694471974310541438466712540820000000000000000.000000	39151968848342817669201541164242821586660070000000000000000.000000
3
4
O	97942869907577331793719024502121674265823720000000000000000.000000	4818266334707782360760372369779948258433814000000000000000.000000	212548485567586851710601623734162700937119300000000000000000.000000
H	1038716659512569120419335850413859431331497000000000000000000.000000	156269354213017482719073957363761033110570400000000000000000.000000	-26363000984331546901281715180292858312432800000000000000000.000000
H	546056936771147873919607422334634911119458700000000000000000.000000	-63570289501352041028425270552443755274974410000000000000000.000000	-136491986305991673843386140630886359852780700000000000000000.000000
3
5
O	-57957536043613452879198328590416827637920540000000000000000.000000	-4413843005515392565884735735111526974165943000000000000000.000000	-138914512260528657989549155844548524389239300000000000000000.000000
H	-875713314010781372250262990099502255805594400000000000000000.000000	-93840426666902974265890247706645535166521820000000000000000.000000	14661617098091175107748317960240186545351800000000000000000.000000
H	-500077554000843212709567987900436272000205800000000000000000.000000	50031136589258036811130173376069833120816880000000000000000.000000	84461235259521940399702066659957726521997780000000000000000.000000
3
6
O	137556797554561900727723023457349141049094000000000000000000.000000	6926134517473956607762591725586372601210119000000000000000.000000	-113193824142193634307356891761905392960937700000000000000000.000000
H	1237701931424066724701834704677429747181102000000000000000000.000000	-119270290846461563294078540487666460428572000000000000000000.000000	71091848024734600121598917637636443207347940000000000000000.000000
H	308366957894497367740673063616159711071480700000000000000000.000000	-6474909296176492840585261732398503734693876000000000000000.000000	178089430063206885606343424631697588678480200000000000000000.000000
3
7
O	-375759138477156546192450487358535254496328700000000000000000.000000	-9998366376624510750568069645124302955119699000000000000000.000000	-145314457392043615939512860399145783465313400000000000000000.000000
H	-2208131082976481325403020246117602309772707000000000000000000.000000	-100839492810692040273153774136275039467062600000000000000000.000000	-50352957412662756073549500662159496590945180000000000000000.000000
H	-443071686411917295593670033956520079458140100000000000000000.000000	54596240889980551781058800880121127346293780000000000000000.000000	-33002416613743230687020358804685538086455320000000000000000.000000
3
8
O	284905765763934396330913721336641871078796400000000000000000.000000	10655103932519522216147306331775241539360000000000000000000.000000	102452982345859268612612576907640499256024600000000000000000.000000
H	2167675484206190850792917047150267665688467000000000000000000.000000	51602777963290061674139208948890142827113970000000000000000.000000	48805751621406335282762236929578712529924530000000000000000.000000
H	645319116050920815762236910339870519304871100000000000000000.000000	-58983010618166331360328938214967854493420210000000000000000.000000	47848509211614719719207665738829472385783720000000000000000.000000
3
9
O	        -1.158815	         0.003416	        -0.397360
H	        -0.589605	         0.599133	         0.074779
H	        -0.661480	        -0.653506	        -0.869504
