3
0
O	        -1.039820	        -0.003412	        -0.397360
H	        -1.537154	         0.653503	         0.074779
H	        -1.609033	        -0.599135	        -0.869504
3
1
O	9788081255496513636816603850874236710693704000000000000000000.000000	-85627252473542232941673539955427020804728220000000000000000.000000	-11656696395490648322133271884939859963571200000000000000000000.000000
H	-7811214955364793747353152438853559613954456000000000000000000.000000	-7958174618589366433852191204301384104199209000000000000000000.000000	4381198829498082450669096229504403857471476000000000000000000.000000
H	-42105943746342288635973106095784250219053440000000000000000000.000000	3877757503843247034237185487936437066488374000000000000000000.000000	12908320614316540853293409108784038827527300000000000000000000.000000
3
2
O	-10558469186405494386835575051075525051399430000000000000000000.000000	36021426659061996420349702129629899882751020000000000000000.000000	9946412080037790979810653784276450678120086000000000000000000.000000
H	-2278770471042392400915757056674347035578156000000000000000000.000000	6767977642359133654293092232621082283848681000000000000000000.000000	-4196556963001542731522794754009776831264898000000000000000000.000000
H	36554395176198669143391452634475492787289990000000000000000000.000000	-3296945540874696060765845425061256606960513000000000000000000.000000	-11860818243054881247291638315049394050777940000000000000000000.000000
3
3
O	-9017357544625985071287849036140096172191945000000000000000000.000000	-161492414740223844181477928756486890637626800000000000000000.000000	-1050070727921312487711290812675517660606656000000000000000000.000000
H	-38819000283048786694361682739766894233983680000000000000000000.000000	-892846161276631910379820805187052265125940900000000000000000.000000	-1626106690857323873914019658344261517184800000000000000000000.000000
H	301117512815814030952458592123658544034848100000000000000000.000000	325222042954184145960635648890463828722273900000000000000000.000000	-2570330203758722861133671095830883452958965000000000000000000.000000
3
4
O	44793937742707954860980781601269135212778230000000000000000000.000000	730535034143503046758738585292341270577557000000000000000000.000000	10188416303968430282096850679500268058305700000000000000000000.000000
H	184202394491792639090510395948128714548010200000000000000000000.000000	8946379677528083808542408709240134241662101000000000000000000.000000	6576691531281821429613827715829386593710684000000000000000000.000000
H	-3180777404951618287125471129756084974923807000000000000000000.000000	-2180810213026126684146782014665513531882779000000000000000000.000000	7941465023022146545633191843353875028695642000000000000000000.000000
3
5
O	-87894072674317143019697826649776603779043750000000000000000000.000000	-852429644232587483798036943358206430063088800000000000000000.000000	-18897994210858226469943117253873844685211420000000000000000000.000000
H	-266649067859114158576184476483965014861257600000000000000000000.000000	-20156711574262123780500867485894999253617050000000000000000000.000000	-11564035818526079364466687372640771696839350000000000000000000.000000
H	67659100451469822755774591581400017735275740000000000000000000.000000	435380526532102137974377634268486531254734800000000000000000.000000	-13557362043803776960023206820326869529348680000000000000000000.000000
3
6
O	74038540800685586166213241113669936976578940000000000000000000.000000	480624658653597533068031029178854661277593100000000000000000.000000	8003914774464608167182892378545693736259958000000000000000000.000000
H	181400536235827808026402390052611190599595800000000000000000000.000000	11915406117148936435400954372353264121671870000000000000000000.000000	11146342005106537987604019408558215287945040000000000000000000.000000
H	-90707907261738966163328819955098372702471210000000000000000000.000000	2724034863993662005743452109385898781441905000000000000000000.000000	17285336145388567087819783175349315953291820000000000000000000.000000
3
7
O	10070764506599784420375700391012217654498210000000000000000000.000000	-1356560945640719582710865453020404907274769000000000000000000.000000	-24314142953366211142772470434420510112820310000000000000000000.000000
H	-220938018308287037441160617867178411925026200000000000000000000.000000	-10656623654376463170553297650973043545872640000000000000000000.000000	4178639735694094417137915804745014895487810000000000000000000.000000
H	-188868580090309455320677388929230965422831900000000000000000000.000000	14403189447471546070083126353007246016067550000000000000000000.000000	17761583181755559660653407969313323905248260000000000000000000.000000
3
8
O	36024959422327826229811140469030427783071840000000000000000000.000000	1718690180012424597864246795276911958235473000000000000000000.000000	30007511725995035369890210251729234531654230000000000000000000.000000
H	344492599943885469592098940286068291165767900000000000000000000.000000	18278905164679004147339401445014739577861200000000000000000000.000000	2751326280241226152158662859782187066443729000000000000000000.000000
H	139726136882971356404901579140685637352170700000000000000000000.000000	-13243787539776373952689675832089692068178140000000000000000000.000000	-7311023200904342715690596542336080176282757000000000000000000.000000
3
9
O	        -1.158815	         0.003416	        -0.397360
H	        -0.589605	         0.599133	         0.074779
H	        -0.661480	        -0.653506	        -0.869504
