3
0
O	        -1.039820	        -0.003412	        -0.397360
H	        -1.537154	         0.653503	         0.074779
H	        -1.609033	        -0.599135	        -0.869504
3
1
O	9342624568.628328	  43187080.050610	3867611037.665534
H	21774969204.931973	3953260261.824997	 610285770.602258
H	-9956861036.921181	-129074482.896670	-470088325.520615
3
2
O	-10044065069.411320	 -57894774.191921	-4224601134.204256
H	-25307335046.677563	-4235665431.818541	-670784201.628245
H	9440501336.236559	 223780407.149300	 505773838.835390
3
3
O	6886997284.594741	  31700579.085939	2849606493.720843
H	16028849786.854851	2913815575.520191	 449874844.348046
H	-7355438050.176435	 -94013599.290392	-345941215.262530
3
4
O	1474655641.380898	  24220570.079909	 723388232.173195
H	6324436665.935874	 611808966.922845	 115522884.755165
H	 360596907.283340	-151826058.963031	 -85372204.522968
3
5
O	-6748989738.249705	-220563444.752702	-4228320951.118515
H	-47270654379.154266	-2892089504.958075	-595892012.490414
H	-14068418643.501928	1565421482.224516	 645571608.173295
3
6
O	 309337799.059254	 317014049.137784	3175769224.889278
H	53678736335.281456	 730614387.270937	 106689118.839563
H	35860969694.197815	-2591478920.635804	-1114485714.719161
3
7
O	2422147446.274251	-264956871.663903	-1840295776.559546
H	-40801225849.507248	 355653143.670100	 128596089.541311
H	-34453364113.950188	2266324037.573475	 997548736.558953
3
8
O	7669096473.487625	 308722760.682928	5365919460.156208
H	63463169759.600380	3396889199.800344	 693010769.486233
H	22648162353.294235	-2255095087.435658	-935996771.797284
3
9
O	        -1.158815	         0.003416	        -0.397360
H	        -0.589605	         0.599133	         0.074779
H	        -0.661480	        -0.653506	        -0.869504
