3
0
O	        -1.039820	        -0.003412	        -0.397360
H	        -1.537154	         0.653503	         0.074779
H	        -1.609033	        -0.599135	        -0.869504
3
1
O	-9935400073237776597502761045120256588107406000000000000000000000000000000000.000000	-150691845407820818409798641277446201272477900000000000000000000000000000000.000000	-5098937939147833121808452084673842807197460000000000000000000000000000000000.000000
H	-40721488357029785899845902311720827624708200000000000000000000000000000000000.000000	-4381996376898523265395882483505585213792763000000000000000000000000000000000.000000	-684468950081346492384618345048954791842936500000000000000000000000000000000.000000
H	-1395829828496118075431529546310797452218275000000000000000000000000000000000.000000	990885026910906750509404206648502466213560000000000000000000000000000000000.000000	841587130972915490614423656339098872103539400000000000000000000000000000000.000000
3
2
O	9468235225377472226053942483226716201617094000000000000000000000000000000000.000000	76197133962670905874412918274920407086870110000000000000000000000000000000.000000	2462583933488752106679096574765217822071832000000000000000000000000000000000.000000
H	26448055951880112337213572302073709533379480000000000000000000000000000000000.000000	2615674472772397248155370090589061114267807000000000000000000000000000000000.000000	1090331562468201259879870040851566474276363000000000000000000000000000000000.000000
H	-8414194201283322101229865820428387886689843000000000000000000000000000000000.000000	-36366591002667819216564117408621372764463700000000000000000000000000000000.000000	997084864458656685321289251197630207114490200000000000000000000000000000000.000000
3
3
O	8159029252484425424443193934016316139851820000000000000000000000000000000000.000000	-142252777926179562184716825335572947016773600000000000000000000000000000000.000000	-5052978479128122102844291715417126221176139000000000000000000000000000000000.000000
H	-15197557886984555615253937114525051650291750000000000000000000000000000000000.000000	-2380491211205007818678616884616816927822793000000000000000000000000000000000.000000	2233929464849643766510064496182741796468429000000000000000000000000000000000.000000
H	-37055641426219369006846671139499003359785780000000000000000000000000000000000.000000	2724880889926221840879581185192309958137934000000000000000000000000000000000.000000	6213883906185629215358309346694714838316871000000000000000000000000000000000.000000
3
4
O	4371350062699915680197724054514468081148339000000000000000000000000000000000.000000	318647369635534575457718285147759792103700000000000000000000000000000000000.000000	5068927971019474762836259169392882394672442000000000000000000000000000000000.000000
H	60495440724565904500512892078255003312897270000000000000000000000000000000000.000000	2726277409948923272914582442305627350733537000000000000000000000000000000000.000000	268698530898548582077492115178259099706838200000000000000000000000000000000.000000
H	30001035394169105004524919518891320776253400000000000000000000000000000000000.000000	-2583816296521969075581689004642350312822681000000000000000000000000000000000.000000	-1597168038602090031257086980554189263696840000000000000000000000000000000000.000000
3
5
O	10627971077408255066207660460404360570618770000000000000000000000000000000000.000000	-348478152980940065260839782824197703983420600000000000000000000000000000000.000000	-5023245732291197393872414900041258352478900000000000000000000000000000000000.000000
H	-45299402461189059239387375317943253856316400000000000000000000000000000000000.000000	-839107980653735424866711925806457931608429600000000000000000000000000000000.000000	2045413417996141325785054438754743757374529000000000000000000000000000000000.000000
H	-63365222242804782422562590538839505173122770000000000000000000000000000000000.000000	4249183524252642750816863970642770372119711000000000000000000000000000000000.000000	5853235247150130048917977182553785411432677000000000000000000000000000000000.000000
3
6
O	-12514626791393112776475174012096390060546240000000000000000000000000000000000.000000	444670799364882256373385679531645763814608000000000000000000000000000000000.000000	26529983449703185544922587724835468353550330000000000000000000000000000000000.000000
H	71266186990854098472599300427204294382047160000000000000000000000000000000000.000000	17694832302246064677886198069963635339044890000000000000000000000000000000000.000000	-7703732906251173950593687752201533945730388000000000000000000000000000000000.000000
H	101953209145337111700580611628529389353122000000000000000000000000000000000000.000000	-9413395640530458303756966787693687689571777000000000000000000000000000000000.000000	-25189389226649203091687510545572788364894180000000000000000000000000000000000.000000
3
7
O	3922463657637594443214061278685246502770765000000000000000000000000000000000.000000	-664008751560663249697892673614222419747545400000000000000000000000000000000.000000	-28994834488995855751261161923588942444728510000000000000000000000000000000000.000000
H	-119738609491149582696377979257725215433964500000000000000000000000000000000000.000000	-19352686317713752041386866868082154362342720000000000000000000000000000000000.000000	6353983004489248054974646291152913204601924000000000000000000000000000000000.000000
H	-110133247154434570020116484395387687782533900000000000000000000000000000000000.000000	10429304012947900615922850312380368175036120000000000000000000000000000000000.000000	23713927508915155758484283811599205149245010000000000000000000000000000000000.000000
3
8
O	-11358706247715244731656882936190605250624660000000000000000000000000000000000.000000	605836874167310693543833083818458363214779500000000000000000000000000000000.000000	23539118627106925419940039289175424331096570000000000000000000000000000000000.000000
H	97125623419587905157737022068404064138062990000000000000000000000000000000000.000000	14398978545116815890234773953677365858792590000000000000000000000000000000000.000000	-6284640663095317162692399391378796229769326000000000000000000000000000000000.000000
H	112851669669322137601254347665447472386885300000000000000000000000000000000000.000000	-9694381126850130033309105701866119858233414000000000000000000000000000000000.000000	-21332375765843880237603109478450110659856740000000000000000000000000000000000.000000
3
9
O	        -1.158815	         0.003416	        -0.397360
H	        -0.589605	         0.599133	         0.074779
H	        -0.661480	        -0.653506	        -0.869504
