3
0
O	        -1.039820	        -0.003412	        -0.397360
H	        -1.537154	         0.653503	         0.074779
H	        -1.609033	        -0.599135	        -0.869504
3
1
O	861608593633494037505039306084843520.000000	-34405871556625028420776532549566464.000000	544314264386730606131581642078158848.000000
H	-4098944817764301726766473333755084800.000000	749739541326578681983337834838228992.000000	-100263417042153856206530357900607488.000000
H	-4676386233299923686743431853996244992.000000	189164670969783920970238583623385088.000000	-410068894370723593730708642818162688.000000
3
2
O	-581057936896908591713583256622333952.000000	20851227788444207667765973786558464.000000	-89187732002266566805799744661618688.000000
H	2549921943418525590352169712922656768.000000	-263455837496583785418077569053360128.000000	-11642869920767092900543991646257152.000000
H	3230836776282727774834591315102007296.000000	-169474818916018168577938472763916288.000000	15342220653350207312882744233558016.000000
3
3
O	-416733876779722458462598680836833280.000000	-21846412503069939305197858331820032.000000	331712201309361272382631153378525184.000000
H	-3896279462308388591677810500068966400.000000	357334752151287069553662491807973376.000000	-214860398363877289762273155291807744.000000
H	-1036541195470295528579503408761798656.000000	27279480033086150731783350995910656.000000	-533946242455397711347036453720817664.000000
3
4
O	1994850886873277366243206729299918848.000000	43851645170203949592663682847866880.000000	-1114194299773343128032594319586099200.000000
H	9096674823060300047692823817216851968.000000	-956151274064514968394476501508030464.000000	734624086959866769619705296316268544.000000
H	-778852595973165428427875355868528640.000000	151471941187249992823178013337190400.000000	1817343416708414298467030625343766528.000000
3
5
O	-3063999929767553987430426000314335232.000000	-74755209972100935888354633951739904.000000	1687684733122726984227284323074572288.000000
H	-15185372709824401400779046031632367616.000000	1493764122811461048257134821990465536.000000	-1142880264883263786580537564345663488.000000
H	402697921285182127130492292873322496.000000	-181709559901286494532481493160165376.000000	-2808429106363088171589765470303027200.000000
3
6
O	2523775485307720607890269559710547968.000000	56379882398620288971945636523933696.000000	-1485532654363304881336978777200132096.000000
H	11609093933072517752421799356339847168.000000	-1277382453331005386497675027825033216.000000	951782753537060699548141469420224512.000000
H	-979644109850264680080729749057437696.000000	201468889949679238066377149374267392.000000	2371897777126470313133331006080679936.000000
3
7
O	-97447975583450865628024777060909056.000000	-14084159105101279307533881645727744.000000	-39250314383564976228983889673060352.000000
H	-2435360957491931990640792812444975104.000000	41776423079762204495753549080166400.000000	-44820793774448881925659369983180800.000000
H	-1306464203903396198078160851183861760.000000	86096465285007383615313566924537856.000000	-66594714634223044854427488115228672.000000
3
8
O	-865688431760914299211639908374413312.000000	48834427421371637830208045560365056.000000	-494609239598641480192316896427638784.000000
H	6460985414166242837378129004169527296.000000	-796316793202688276873788618797219840.000000	127004244307876000317365535937396736.000000
H	6235857462354255191612497914996195328.000000	-289612575514226889450950657415577600.000000	438945623637194293903310487617011712.000000
3
9
O	        -1.158815	         0.003416	        -0.397360
H	        -0.589605	         0.599133	         0.074779
H	        -0.661480	        -0.653506	        -0.869504
