3
0
O	        -1.039820	        -0.003412	        -0.397360
H	        -1.537154	         0.653503	         0.074779
H	        -1.609033	        -0.599135	        -0.869504
3
1
O	-139182365928227897622548928392885981409020900000000000000.000000	-4700540716399751379669386659250706260658153000000000000.000000	-102189950845773271117450642178204014852372000000000000000.000000
H	-1008453242031396863036397883265144845328763000000000000000.000000	-71026600687956607805736890902219661725328990000000000000.000000	-8793842950663869370899286662779106483496488000000000000.000000
H	-323154366638159368071732986240470476137277900000000000000.000000	36281249646094887008619846559008566505172110000000000000.000000	25961763638738957847843322020173421148017560000000000000.000000
3
2
O	260117580138859949814951245142241180898231400000000000000.000000	10517915933376832239235260523666365135807820000000000000.000000	196288037489520556869259481282046494063608800000000000000.000000
H	2168667225384759609627125580398417289408361000000000000000.000000	126655911022366266376276851452342096452921200000000000000.000000	19899362142768371020631089328398164930542800000000000000.000000
H	789500459000474434801261464508564860323632300000000000000.000000	-79687287090658964444561363125939373174890190000000000000.000000	-44310108688612301325495209907710850369605450000000000000.000000
3
3
O	-607195754564233148828133576304088806024291600000000000000.000000	-19151587495012413156286991340652195458699830000000000000.000000	-46992141102450632960295073629456190310037820000000000000.000000
H	-3940767314411516757309725420102138660333809000000000000000.000000	9190733887726570812575577643517281147322170000000000000.000000	-138872050111845822131787191328128108545329200000000000000.000000
H	-809357213135286178580495916849760295434189300000000000000.000000	68660441936587162247042371153784365606864070000000000000.000000	-237144454712778905067152500758703269260567500000000000000.000000
3
4
O	1086212664627689941409940302554978086910110000000000000000.000000	17748333987107307725591962377962019729306050000000000000.000000	1032532432160322736950619711117117482010283000000000000000.000000
H	4943228317107961230613148610380259677239097000000000000000.000000	861178887531677818660964052723634492532718400000000000000.000000	-45847846028150332618593979264491174791273900000000000000.000000
H	832593233156850487929457242143028459083102000000000000000.000000	-212964854647742966341593421685687251769327900000000000000.000000	-511174579880889681326649825726542521267435000000000000000.000000
3
5
O	-796319905442987723937070140857926142498103300000000000000.000000	-32926475234607714050807733009082120741694450000000000000.000000	-1403740512389947430910333845538660659767989000000000000000.000000
H	-7238388883870635407625235219317797143504087000000000000000.000000	-1042041018430812994169918828791141229524579000000000000000.000000	147004039698364406545292808756810801767564600000000000000.000000
H	-3418521977033308723065255202375005155373462000000000000000.000000	411890666801838959106808672477934148364701800000000000000.000000	851363717308240626524157198405495364160559100000000000000.000000
3
6
O	520999302058967885857112176144175689054127500000000000000.000000	52182267419982839188520234177263727376943730000000000000.000000	-24602884118657229555570166504360742792708570000000000000.000000
H	9134421593983989997354807126617004013053494000000000000000.000000	-276471994755285065223436459566927151359908600000000000000.000000	236224155664125159697218129998059360401284200000000000000.000000
H	4320902332707026457644852728809836001659927000000000000000.000000	-268507547562337587283314825304631878296072500000000000000.000000	446577583114088898569707733220255009446298400000000000000.000000
3
7
O	-2093933761783071112823125384031385189355046000000000000000.000000	-54723145279379478463684593535715973076728870000000000000.000000	-151797477018934668725680099790605932118582700000000000000.000000
H	-11749399460009840903020324326576246180939240000000000000000.000000	-28081421378537909939271132885090143748186780000000000000.000000	-449889802778738506410111415068606482728260800000000000000.000000
H	-1607056817026657431371728883400000415011403000000000000000.000000	164127471198879483103141083182086859893437000000000000000.000000	-768429978668588283892761512801180672634231500000000000000.000000
3
8
O	1534357298379530018142454828010113489153058000000000000000.000000	58731539631898061472536603025679463358562420000000000000.000000	981018257664282064846509579625843302777376600000000000000.000000
H	12149919247669257143271390699241045090963260000000000000000.000000	621968070255620103893635981651455182148088000000000000000.000000	154356710679780466011488749303787063392808000000000000000.000000
H	4110251753002956087112684484771778894126817000000000000000.000000	-413427803771446896628460285301709138928000600000000000000.000000	-120027947268344444832176461277776694174726200000000000000.000000
3
9
O	        -1.158815	         0.003416	        -0.397360
H	        -0.589605	         0.599133	         0.074779
H	        -0.661480	        -0.653506	        -0.869504
