3
0
O	        -1.039820	        -0.003412	        -0.397360
H	        -1.537154	         0.653503	         0.074779
H	        -1.609033	        -0.599135	        -0.869504
3
1
O	-12947098485158972472950784.000000	-37970398346630643318784.000000	-1541749218618237561864192.000000
H	-24341535557257272953405440.000000	-2477753103266838883598336.000000	-1782994292112351471599616.000000
H	20468659004990904621596672.000000	-734598065227203891691520.000000	-2656998677582372117938176.000000
3
2
O	24804560466184089234309120.000000	-32624354508171466768384.000000	3568026102206162234507264.000000
H	29931197637484250335805440.000000	5885605423826434932080640.000000	2960279605200575759646720.000000
H	-49415453425578169306447872.000000	1939058928556897235632128.000000	3994852192976698750271488.000000
3
3
O	-20773567036293918712922112.000000	58684892638835992690688.000000	-3135283403858696680243200.000000
H	-20074056797016529011998720.000000	-5238716452505406117249024.000000	-2352929855162550505701376.000000
H	44462349863712964080566272.000000	-1789468183990718213128192.000000	-3051600451446065221074944.000000
3
4
O	5252524976786002101141504.000000	348298764260929592885248.000000	-1066644212114607004712960.000000
H	62794964149018289206460416.000000	-2388119706751053558972416.000000	2097874063953044302725120.000000
H	24210266819833361963417600.000000	-1432338348814353735614464.000000	4316258371826553840467968.000000
3
5
O	-27032915402740736481820672.000000	-1103099565372721000873984.000000	1864990236487915118002176.000000
H	-213651169753953378540453888.000000	5164275916977029190254592.000000	-7918786512023245591412736.000000
H	-57398625525801713427021824.000000	3812354477893960320679936.000000	-15399640911318934561488896.000000
3
6
O	26806057414542548791197696.000000	1825829176333566857969664.000000	-2846331972931697478991872.000000
H	329854673570714826395615232.000000	-10347683486575057642192896.000000	10162399207387701117452288.000000
H	131553558381357610217504768.000000	-8139550458494055107002368.000000	19950101306997346830123008.000000
3
7
O	-43781125207219042502311936.000000	-1291685656127213909573632.000000	-1755405197713013680898048.000000
H	-268710423461370620052242432.000000	1465048373417328657825792.000000	-10190470932439301183504384.000000
H	-47236604925704614690422784.000000	4062277077533093527552000.000000	-18100914647912094871060480.000000
3
8
O	40618292312670795135451136.000000	1735290534573015952261120.000000	-2224678100911350211411968.000000
H	333977426922458826844143616.000000	-7754484950612377310593024.000000	11965217516770806506455040.000000
H	94968731476812950224764928.000000	-6330876067612447666601984.000000	23023696181455274861658112.000000
3
9
O	        -1.158815	         0.003416	        -0.397360
H	        -0.589605	         0.599133	         0.074779
H	        -0.661480	        -0.653506	        -0.869504
