3
0
O	        -1.039820	        -0.003412	        -0.397360
H	        -1.537154	         0.653503	         0.074779
H	        -1.609033	        -0.599135	        -0.869504
3
1
O	-2259817943081643.500000	-25323614947757.902344	-1281733120411648.250000
H	-7885015268960743.000000	-1150677740030648.750000	-98722932029493.328125
H	468580118002963.937500	194414429302448.281250	347031344785036.625000
3
2
O	2742257324250277.000000	12493130641456.095703	1541984656749283.500000
H	6605670657476204.000000	1495193290068594.500000	72241245990387.328125
H	-2472208914393774.500000	-119535207476030.171875	-503456115639742.312500
3
3
O	4106241459458.222168	-18317458164983.292969	-10016903334053.751953
H	-2968272620054248.500000	102565127795726.828125	-48003693192990.375000
H	-1916374745234801.750000	116610117882124.875000	-84551827097106.953125
3
4
O	539744036160463.437500	23378179798896.554688	192966266141221.593750
H	4623142093306166.000000	77606533520281.281250	101693476763396.375000
H	1551767835826432.000000	-131408821099079.875000	108170654737060.656250
3
5
O	-1664527903036430.000000	-14655244865205.310547	-804519702251334.750000
H	-5076542443889545.000000	-757125469546908.000000	-98027301378180.578125
H	920068835016895.375000	89877779228010.281250	151209176846566.750000
3
6
O	5715133633742742.000000	48820842164828.132812	2550587779909557.500000
H	17060608899932534.000000	2434895969052633.500000	387752107298810.687500
H	-3558388969299541.000000	-256166532629635.656250	-337183812942708.875000
3
7
O	-6535015711571088.000000	-114406105022303.484375	-3340750729262241.000000
H	-29253730974033248.000000	-2779447796735970.000000	-496433107779621.625000
H	-2485921340809179.500000	744378601449452.750000	462753714164538.000000
3
8
O	7208568522262351.000000	83912467788430.703125	3382363599628395.500000
H	25236385682559780.000000	3072245646493605.500000	508381226255915.375000
H	-1985164379797325.250000	-495943593467782.750000	-457886566045453.125000
3
9
O	        -1.158815	         0.003416	        -0.397360
H	        -0.589605	         0.599133	         0.074779
H	        -0.661480	        -0.653506	        -0.869504
