3
0
O	        -1.039820	        -0.003412	        -0.397360
H	        -1.537154	         0.653503	         0.074779
H	        -1.609033	        -0.599135	        -0.869504
3
1
O	       256.596939	       -68.528646	      -348.374069
H	    -10968.924559	       156.571331	       -59.381179
H	     -8018.850692	       522.881469	        32.987843
3
2
O	     -1083.872235	        47.026756	       -98.414591
H	      6115.415464	      -483.592182	       -16.574146
H	      6944.073431	      -381.237089	         8.889078
3
3
O	     -1986.501204	       -26.798956	      -912.039489
H	     -7537.229287	      -806.971043	      -155.482883
H	       186.831308	       154.891601	        88.300890
3
4
O	     -2811.961249	        28.561908	      -860.268576
H	       362.478798	     -1189.844009	      -146.636078
H	      7647.457885	      -282.609066	        83.293901
3
5
O	      -228.933927	       -45.710556	      -381.698211
H	     -7939.443586	       -62.262935	       -64.781143
H	     -4713.076122	       339.260938	        36.790778
3
6
O	     -2654.353786	        19.395899	      -861.414869
H	      -913.085503	     -1118.029950	      -146.679218
H	      6378.443892	      -209.604695	        83.683103
3
7
O	       411.251678	       -47.176577	      -152.629471
H	     -7185.894073	       205.783565	       -25.949649
H	     -5895.013096	       365.315308	        13.908398
3
8
O	     -1934.783879	        67.311208	      -283.397804
H	      8156.193772	      -852.272113	       -48.101807
H	     10551.348951	      -554.469828	        27.061971
3
9
O	        -1.158815	         0.003416	        -0.397360
H	        -0.589605	         0.599133	         0.074779
H	        -0.661480	        -0.653506	        -0.869504
