3
0
O	        -1.039820	        -0.003412	        -0.397360
H	        -1.537154	         0.653503	         0.074779
H	        -1.609033	        -0.599135	        -0.869504
3
1
O	  95031308.298774	     21955.883195	  35421595.310601
H	 151525079.114409	  39510073.445828	   6064210.176371
H	-149009896.223517	   2085780.039245	  -3428227.327734
3
2
O	 -99112502.314090	   -250754.832660	 -36792120.928923
H	-194858641.081250	 -39710856.119058	  -7001973.204743
H	 131991804.425777	   -785910.102650	   2261827.559472
3
3
O	  87775237.978647	     48917.092864	  33338349.485088
H	 144967873.837447	  36830603.367253	   5518857.254984
H	-133950394.795704	   1621568.440675	  -3575179.409314
3
4
O	 -34329159.890853	    -81884.963601	 -13142896.236823
H	 -66926953.171421	 -14112058.333847	  -2306888.373603
H	  45770988.310269	   -221887.942239	   1167022.144029
3
5
O	 -49938531.200678	   -775000.346343	 -23522730.695882
H	-206263618.596488	 -20191468.305572	  -4040382.772558
H	  -6405436.766445	   4661354.364361	   2251678.118631
3
6
O	  40733952.411132	    673129.417084	  19511192.215357
H	 175078634.496269	  16488948.968498	   3325618.372116
H	   9841221.432904	  -4123537.396890	  -1915183.181801
3
7
O	 -20737330.261352	  -1270641.057546	 -16109424.543073
H	-243179966.999536	  -7872737.528360	  -2675735.478301
H	-108213067.248129	   9139891.693047	   1710302.915040
3
8
O	  54743223.927695	   1646125.127719	  31161739.746083
H	 358389007.969905	  21747034.599051	   5253315.964923
H	  95696791.211211	 -11168590.129206	  -3165792.319396
3
9
O	        -1.158815	         0.003416	        -0.397360
H	        -0.589605	         0.599133	         0.074779
H	        -0.661480	        -0.653506	        -0.869504
