3
0
O	        -1.039820	        -0.003412	        -0.397360
H	        -1.537154	         0.653503	         0.074779
H	        -1.609033	        -0.599135	        -0.869504
3
1
O	        -1.051240	        -0.002756	        -0.397360
H	        -1.446220	         0.648286	         0.074779
H	        -1.518098	        -0.604353	        -0.869504
3
2
O	        -1.065953	        -0.001912	        -0.397360
H	        -1.329062	         0.641563	         0.074779
H	        -1.400940	        -0.611075	        -0.869504
3
3
O	        -1.079006	        -0.001163	        -0.397360
H	        -1.225124	         0.635599	         0.074779
H	        -1.297001	        -0.617039	        -0.869504
3
4
O	        -1.092576	        -0.000385	        -0.397360
H	        -1.117068	         0.629399	         0.074779
H	        -1.188945	        -0.623240	        -0.869504
3
5
O	        -1.106066	         0.000389	        -0.397360
H	        -1.009647	         0.623235	         0.074779
H	        -1.081523	        -0.629403	        -0.869504
3
6
O	        -1.119635	         0.001168	        -0.397360
H	        -0.901594	         0.617035	         0.074779
H	        -0.973470	        -0.635604	        -0.869504
3
7
O	        -1.132686	         0.001917	        -0.397360
H	        -0.797668	         0.611071	         0.074779
H	        -0.869544	        -0.641567	        -0.869504
3
8
O	        -1.147400	         0.002761	        -0.397360
H	        -0.680507	         0.604349	         0.074779
H	        -0.752383	        -0.648290	        -0.869504
3
9
O	        -1.158815	         0.003416	        -0.397360
H	        -0.589605	         0.599133	         0.074779
H	        -0.661480	        -0.653506	        -0.869504
