3
0
O	        -1.039820	        -0.003412	        -0.397360
H	        -1.537154	         0.653503	         0.074779
H	        -1.609033	        -0.599135	        -0.869504
3
1
O	158328267513.776947	 398124176.863637	62791270728.752899
H	313291734681.251221	66747251503.207245	10127892910.367359
H	-206469896333.169861	 453030850.647330	-7226065338.856564
3
2
O	-202245173703.123596	 -17454467.104281	-76071454475.768127
H	-318144614630.523376	-84825416747.882324	-12644102207.778719
H	319359747894.920410	-4481474911.724546	8063364531.336601
3
3
O	92822665371.349167	 601824593.592319	40009376233.513191
H	245279802237.208527	39535641230.389763	6133029229.197848
H	-79213579938.103333	-2681261223.692101	-5195757892.401732
3
4
O	21386133698.613140	1146530578.684628	18377302780.604713
H	225297204257.791779	10553170760.890093	1839387131.467064
H	96667912810.041138	-8763575078.367773	-4192140991.808367
3
5
O	33318014147.280163	-1955765443.881543	-6119399098.303070
H	-276107381071.904236	10468567737.080509	1477252071.152531
H	-276920718754.093384	16741806557.400225	5255524132.088620
3
6
O	40109251645.116791	 922752696.002481	22870082331.072598
H	216703187321.256287	17671702820.748337	3045694922.497684
H	40824714507.191841	-6424980406.148899	-3819547557.670246
3
7
O	-124973358505.070068	-3322328683.154433	-75321663677.155243
H	-750098323080.863281	-55701540094.089241	-9679398986.512192
H	-178190455843.306793	23633122664.613140	13228649411.499231
3
8
O	101160515693.267365	3383777067.822033	67285036743.533478
H	723479710925.662231	46086491368.512367	8127782438.269744
H	223429263710.758698	-24743866797.575054	-12775448403.296623
3
9
O	        -1.158815	         0.003416	        -0.397360
H	        -0.589605	         0.599133	         0.074779
H	        -0.661480	        -0.653506	        -0.869504
