3
0
O	        -1.039820	        -0.003412	        -0.397360
H	        -1.537154	         0.653503	         0.074779
H	        -1.609033	        -0.599135	        -0.869504
3
1
O	        -0.845869	        -0.014541	        -0.397360
H	        -3.081573	         0.742123	         0.074779
H	        -3.153457	        -0.510515	        -0.869504
3
2
O	        -1.315128	         0.012385	        -0.397360
H	         0.655105	         0.527711	         0.074779
H	         0.583234	        -0.724928	        -0.869504
3
3
O	        -0.891075	        -0.011947	        -0.397360
H	        -2.721601	         0.721467	         0.074779
H	        -2.793483	        -0.531171	        -0.869504
3
4
O	        -1.217124	         0.006762	        -0.397360
H	        -0.125298	         0.572491	         0.074779
H	        -0.197172	        -0.680148	        -0.869504
3
5
O	        -0.981466	        -0.006760	        -0.397360
H	        -2.001824	         0.680166	         0.074779
H	        -2.073704	        -0.572472	        -0.869504
3
6
O	        -1.307761	         0.011963	        -0.397360
H	         0.596439	         0.531077	         0.074779
H	         0.524568	        -0.721561	        -0.869504
3
7
O	        -0.883238	        -0.012396	        -0.397360
H	        -2.784007	         0.725048	         0.074779
H	        -2.855890	        -0.527590	        -0.869504
3
8
O	        -1.352998	         0.014558	        -0.397360
H	         0.956661	         0.510408	         0.074779
H	         0.884792	        -0.742231	        -0.869504
3
9
O	        -1.158815	         0.003416	        -0.397360
H	        -0.589605	         0.599133	         0.074779
H	        -0.661480	        -0.653506	        -0.869504
