3
0
O	        -1.039820	        -0.003412	        -0.397360
H	        -1.537154	         0.653503	         0.074779
H	        -1.609033	        -0.599135	        -0.869504
3
1
O	-66825375203784166883546048812554387456.000000	-1554107245576751751194036240730030080.000000	-1897651453542584090215590896250912768.000000
H	-342042238147300608914157789153788428288.000000	363173887946631365986771564761186304.000000	-14589924749473454884662934141707223040.000000
H	-27975757835166351913845822166359080960.000000	3439537618688878364644259445849718784.000000	-26169594456099775840872142900043972608.000000
3
2
O	335308313337151668347010599788478464000.000000	3376350252114781063024925069847560192.000000	133453380683267433801994919642788790272.000000
H	1074196593156792105436473523584150536192.000000	126488809435754140590872779306949410816.000000	28417151520874439767082322875331379200.000000
H	-174438980939928113563974076077145325568.000000	-14925195265867319070445814627407233024.000000	-2624932621835377371968699549624565760.000000
3
3
O	-723145283175441974033186002418035326976.000000	-3894919842726297237350278967041458176.000000	-533499627137401180601461600001214906368.000000
H	-1915309788915766053735148859251560022016.000000	-494764089643226645639437629938078842880.000000	12448709839620789705623187004476882944.000000
H	443386182174643810560982900039565180928.000000	61087259096108139107728512410667974656.000000	243357027059858668642813732988536225792.000000
3
4
O	562864476145767506805868793495782686720.000000	2413221223776103923554775967220105216.000000	262678488710733339697240829467903918080.000000
H	1299099158489320755444939381881926844416.000000	263648200893354290170328872435062931456.000000	28481036395537906729851768803459858432.000000
H	-585175618650842862388179660567528603648.000000	-12638776558449553244801364822759309312.000000	-55883917732223661392275550619027111936.000000
3
5
O	-506036480780061953548413250765341065216.000000	-6542909920234866364402213219270131712.000000	-212128343570432768896812862221603307520.000000
H	-1862083158894473375567199014134298443776.000000	-190974076835144968106609861306825572352.000000	-44133787117872102053612279132239953920.000000
H	101022614692726027846082441257878028288.000000	33728654893308531036766395910791888896.000000	6085917649606863613727986726767427584.000000
3
6
O	545751481686742649409624377304081760256.000000	3616439728241813185205362297715818496.000000	232681701512803558525923368263858782208.000000
H	1453231391524761490051606013208130748416.000000	229885051641786823459601250471139868672.000000	36945437945541278459173306088877457408.000000
H	-460606515752051650556604188777120792576.000000	-15730905879542809922103768466694602752.000000	-27856437598994215361188545948993716224.000000
3
7
O	-844790046208245721057765749498635616256.000000	-3552546492463230857548473362683002880.000000	-516548682996827143216911282449110007808.000000
H	-2011888265227792972715373133470655053824.000000	-496462724438165157748688423826655019008.000000	-10567548021505730113010954974030462976.000000
H	744354947243142999641648447444320518144.000000	43429511836414406220763088099353821184.000000	193836758241514039542169690625353449472.000000
3
8
O	469017005556643614782715447758920089600.000000	4878580630674223692797388066541010944.000000	217320545291571256490735646116923047936.000000
H	1546181376499120797121895153321870622720.000000	201136550044208312388969220456746844160.000000	32169291645834992799726841018181484544.000000
H	-192497209547345126283977011706321698816.000000	-28086850969728898013026757272905187328.000000	-30333977174573696150706111449837600768.000000
3
9
O	        -1.158815	         0.003416	        -0.397360
H	        -0.589605	         0.599133	         0.074779
H	        -0.661480	        -0.653506	        -0.869504
