3
0
O	        -1.039820	        -0.003412	        -0.397360
H	        -1.537154	         0.653503	         0.074779
H	        -1.609033	        -0.599135	        -0.869504
3
1
O	-663989898271195400434548759267852818092860800000000000000000000000000000000000000.000000	-21134730000255291066602871419519828563874900000000000000000000000000000000000000.000000	-308091256330417939568150679983569082224892900000000000000000000000000000000000000.000000
H	-4494389566497480497593817758658561634832610000000000000000000000000000000000000000.000000	-199406377138361544532595604829636584756480900000000000000000000000000000000000000.000000	-85264054320855419616883957224410990828285630000000000000000000000000000000000000.000000
H	-1201095154641268836096054170892734303716738000000000000000000000000000000000000000.000000	128526859295092491943557723391261777312767200000000000000000000000000000000000000.000000	-30266263384983745223060814104979194856982190000000000000000000000000000000000000.000000
3
2
O	-724949355147757980423654889997022941773360300000000000000000000000000000000000000.000000	8743554519773254166532437832149858588290867000000000000000000000000000000000000.000000	1347692165328691589552106174575857659231669000000000000000000000000000000000000000.000000
H	1258102765407394720730396846703878633038882000000000000000000000000000000000000000.000000	972332819079333390816264015395307117051022900000000000000000000000000000000000000.000000	-444435715679263873220307511847717954005669800000000000000000000000000000000000000.000000
H	3926031180884982715293417758180649312189458000000000000000000000000000000000000000.000000	-400754685974463087941727955589029388749136600000000000000000000000000000000000000.000000	-1377683912842196618819285095695037018236150000000000000000000000000000000000000000.000000
3
3
O	1653340564562025976035945749391760636624958000000000000000000000000000000000000000.000000	-56991701501890411881053328713470154606872210000000000000000000000000000000000000.000000	-6265569320054240556462483940505337781760244000000000000000000000000000000000000000.000000
H	-10786408346598150719477574429590638852041460000000000000000000000000000000000000000.000000	-4613227875781614281787474456391148024787908000000000000000000000000000000000000000.000000	1744645158501138026874830020468364611440412000000000000000000000000000000000000000.000000
H	-16472731545624639130429523673925010552881810000000000000000000000000000000000000000.000000	1794581852301715210013800573309764510808253000000000000000000000000000000000000000.000000	5810917397148493751278702644607112764708079000000000000000000000000000000000000000.000000
3
4
O	-665216116465410423746133434224860740633939600000000000000000000000000000000000000.000000	94816910113306708914078371919984250226280290000000000000000000000000000000000000.000000	12256000067819013227359070506976829692284440000000000000000000000000000000000000000.000000
H	21824933037655853743193077252373248609486650000000000000000000000000000000000000000.000000	9410258623850737772204576376000283975064686000000000000000000000000000000000000000.000000	-3046654946012857642777659127311599649703602000000000000000000000000000000000000000.000000
H	25302605307260149317141639347481129628156930000000000000000000000000000000000000000.000000	-3151530950824928765851279053517910498706051000000000000000000000000000000000000000.000000	-10690501080173961801314333131262329440833480000000000000000000000000000000000000000.000000
3
5
O	1441562068109757553653814666922094190287250000000000000000000000000000000000000000.000000	-65049253657491496686380466365716055610155930000000000000000000000000000000000000.000000	-12011876064435866084323092804899043830993430000000000000000000000000000000000000000.000000
H	-15820395858473290587028624736284925417448950000000000000000000000000000000000000000.000000	-9302820581203979033318235470489382208885883000000000000000000000000000000000000000.000000	3190866960261696630151250738738471146013069000000000000000000000000000000000000000.000000
H	-23508677410057788213808966666018022122753600000000000000000000000000000000000000000.000000	2993370843069360944537495510104955915790999000000000000000000000000000000000000000.000000	10856090772469616857925093133021957617111920000000000000000000000000000000000000000.000000
3
6
O	-710213435636947553699368513498007858931476500000000000000000000000000000000000000.000000	89842089331547227885688816643125394249644740000000000000000000000000000000000000.000000	-4103505379812150848086968863086820138747797000000000000000000000000000000000000000.000000
H	11147963270183392648781207591318395769822410000000000000000000000000000000000000000.000000	-3986906457923269912596144469673078829299135000000000000000000000000000000000000000.000000	1210604735623902816796530900208865433806729000000000000000000000000000000000000000.000000
H	6003422606247702466707055013996632574130634000000000000000000000000000000000000000.000000	204784754513461459172503285288319703007656300000000000000000000000000000000000000.000000	3931403049156557082457881239661344596546867000000000000000000000000000000000000000.000000
3
7
O	2551098854307065584082889211621101781821315000000000000000000000000000000000000000.000000	-319023674010357419873541061217006260469405000000000000000000000000000000000000000.000000	5474837104193813281631587989559824665107944000000000000000000000000000000000000000.000000
H	-45002054789105089275261205497722007184065180000000000000000000000000000000000000000.000000	6697339474005040638699362669685962495643816000000000000000000000000000000000000000.000000	-1915146727056020378648286536324471366008873000000000000000000000000000000000000000.000000
H	-31871982153655915798025061063654044090152180000000000000000000000000000000000000000.000000	1127189506081221563136191942993235016241444000000000000000000000000000000000000000.000000	-5799487914337668952800466063325748399722975000000000000000000000000000000000000000.000000
3
8
O	-2857827671363311211340716258208248417953820000000000000000000000000000000000000000.000000	314278851957057447324409480745630862517929100000000000000000000000000000000000000.000000	-5016875250887944085553552334384501436893561000000000000000000000000000000000000000.000000
H	44098931068869952589545108984131195775785730000000000000000000000000000000000000000.000000	-6327178666142787607948901033352997067347800000000000000000000000000000000000000000.000000	1732819720525749537132874384349652180535273000000000000000000000000000000000000000.000000
H	32529304657586404388818390125414449646630670000000000000000000000000000000000000000.000000	-1221273965308771284095210849041783537719462000000000000000000000000000000000000000.000000	5273503939970216737326370486819750149229623000000000000000000000000000000000000000.000000
3
9
O	        -1.158815	         0.003416	        -0.397360
H	        -0.589605	         0.599133	         0.074779
H	        -0.661480	        -0.653506	        -0.869504
