3
0
O	        -1.039820	        -0.003412	        -0.397360
H	        -1.537154	         0.653503	         0.074779
H	        -1.609033	        -0.599135	        -0.869504
3
1
O	-3137398855541032960.000000	-16058747335031878.000000	-1151521223393086336.000000
H	-7476121649725925376.000000	-1197357610019355648.000000	-247817462958999872.000000
H	3352512717980462592.000000	23064485513922412.000000	17824043645419402.000000
3
2
O	5079101758056853504.000000	29487303054661788.000000	1754858322305811456.000000
H	12602883794946404352.000000	1827672193565079808.000000	439551622345736704.000000
H	-5192148699488099328.000000	-36837901781697088.000000	87173110230565408.000000
3
3
O	-4200777563766678016.000000	-55608308123577744.000000	-862585577187604864.000000
H	-15128574127515994112.000000	-840489668403327744.000000	-604934548555797376.000000
H	1741208870604888064.000000	105203481122871184.000000	-761259677753761152.000000
3
4
O	1944647849314323200.000000	91842075374353104.000000	-803142687323233664.000000
H	16991538758587838464.000000	-995586259503908736.000000	779569302435474176.000000
H	4650271897027227648.000000	-215922480419561760.000000	1771919151490674688.000000
3
5
O	-5441358378111376384.000000	-124039435510894432.000000	-2528098799125190.000000
H	-27354126925555978240.000000	139178298728892912.000000	-1220740026381842688.000000
H	-1843132423288109568.000000	233514254918893088.000000	-2254146985367516928.000000
3
6
O	-79932211410159968.000000	45060378580494592.000000	-344651239338260864.000000
H	6987269811466569728.000000	-563067173309994048.000000	203448697688431136.000000
H	4429340961070635520.000000	-218623333249551328.000000	518222274427047360.000000
3
7
O	-3367330234373630976.000000	-245542840346240096.000000	1789210111534714112.000000
H	-43199494061135495168.000000	2571943803069299712.000000	-1696310982606210816.000000
H	-16549490988686581760.000000	831955002939189760.000000	-3872833768840291328.000000
3
8
O	4528427471844981760.000000	249925934576856672.000000	-1244418350394443008.000000
H	45784681576525160448.000000	-2022093995236427264.000000	1752630905771451136.000000
H	15284146556863455232.000000	-854914646738840960.000000	3751851875697646592.000000
3
9
O	        -1.158815	         0.003416	        -0.397360
H	        -0.589605	         0.599133	         0.074779
H	        -0.661480	        -0.653506	        -0.869504
