3
0
O	        -1.039820	        -0.003412	        -0.397360
H	        -1.537154	         0.653503	         0.074779
H	        -1.609033	        -0.599135	        -0.869504
3
1
O	        -1.052970	        -0.002657	        -0.397360
H	        -1.432448	         0.647495	         0.074779
H	        -1.504326	        -0.605143	        -0.869504
3
2
O	        -1.066208	        -0.001898	        -0.397360
H	        -1.327034	         0.641447	         0.074779
H	        -1.398912	        -0.611192	        -0.869504
3
3
O	        -1.079450	        -0.001138	        -0.397360
H	        -1.221588	         0.635396	         0.074779
H	        -1.293465	        -0.617242	        -0.869504
3
4
O	        -1.092695	        -0.000378	        -0.397360
H	        -1.116117	         0.629344	         0.074779
H	        -1.187994	        -0.623294	        -0.869504
3
5
O	        -1.105941	         0.000382	        -0.397360
H	        -1.010638	         0.623292	         0.074779
H	        -1.082515	        -0.629347	        -0.869504
3
6
O	        -1.119186	         0.001142	        -0.397360
H	        -0.905168	         0.617240	         0.074779
H	        -0.977044	        -0.635399	        -0.869504
3
7
O	        -1.132428	         0.001902	        -0.397360
H	        -0.799722	         0.611189	         0.074779
H	        -0.871598	        -0.641449	        -0.869504
3
8
O	        -1.145666	         0.002662	        -0.397360
H	        -0.694309	         0.605141	         0.074779
H	        -0.766185	        -0.647498	        -0.869504
3
9
O	        -1.158815	         0.003416	        -0.397360
H	        -0.589605	         0.599133	         0.074779
H	        -0.661480	        -0.653506	        -0.869504
