3
0
O	        -1.039820	        -0.003412	        -0.397360
H	        -1.537154	         0.653503	         0.074779
H	        -1.609033	        -0.599135	        -0.869504
3
1
O	4135492719286686530756673536.000000	-831850511999499818472833024.000000	2381527419092920265858875392.000000
H	-127831046335100675430295797760.000000	7424609082002720744867364864.000000	-2287394359346354573663010816.000000
H	-91740557701353789845279866880.000000	5110250644336769999684239360.000000	-5209747575851257198490419200.000000
3
2
O	-57975506342228109408929316864.000000	1799612196908881072978132992.000000	-8867704625464911520675659776.000000
H	208938969152281883103947915264.000000	-24569544612864629736862646272.000000	-1956050709494690526886100992.000000
H	293318560861172984014778138624.000000	-15165497193612305583994568704.000000	50312858377053564911484928.000000
3
3
O	122520575569969430109265854464.000000	-1754672980004770753961525248.000000	12554260324795094863152414720.000000
H	-113375715154137101743878569984.000000	34509923160709100053140078592.000000	11486624685868118567477575680.000000
H	-414921180218000658038437969920.000000	20541424946995956836756094976.000000	16033194679653623499348508672.000000
3
4
O	-56068503303054189580634816512.000000	1670424408980716320848871424.000000	-9024267851214145283170500608.000000
H	190457455214341686135229513728.000000	-23707571897142710486553329664.000000	-1970438209161074504240201728.000000
H	275906423950818068489499049984.000000	-14139188573927616418301345792.000000	88331190628655666955288576.000000
3
5
O	85720514232222775733706031104.000000	-2910606559325609529677185024.000000	21473849266641600284685500416.000000
H	-344380766792966386673738842112.000000	44692878178156260002669527040.000000	5917974570724492924944384.000000
H	-449901665504575471349015773184.000000	22277761467634438789467734016.000000	-8860459103008728753872306176.000000
3
6
O	-96481167376562310842587021312.000000	2994382937771438837954772992.000000	-23550715272158735912251949056.000000
H	342359019507202400201755066368.000000	-48099511074959845929059876864.000000	-956871088746274691559194624.000000
H	477937137260562298386646040576.000000	-23445217337106866196128464896.000000	7961621383108986374849560576.000000
3
7
O	63206870403854917055337725952.000000	-2305433263013049188055252992.000000	4622053058762999514980679680.000000
H	-286460707238196395299817127936.000000	24715234315203445579055104000.000000	2490652839585306269355868160.000000
H	-361165426920134004139500765184.000000	19701416685274128625210228736.000000	2690666832076000876740739072.000000
3
8
O	-103725612761283798729645621248.000000	3154212803121546560911966208.000000	-15308548159944741498495434752.000000
H	363536560547205570622180556800.000000	-43106495031537804146678693888.000000	-3828718311540948716300009472.000000
H	518642955380093068173924892672.000000	-26837991515204377764675190784.000000	-747999419535130146621095936.000000
3
9
O	        -1.158815	         0.003416	        -0.397360
H	        -0.589605	         0.599133	         0.074779
H	        -0.661480	        -0.653506	        -0.869504
