3
0
O	        -1.039820	        -0.003412	        -0.397360
H	        -1.537154	         0.653503	         0.074779
H	        -1.609033	        -0.599135	        -0.869504
3
1
O	-34688247630083312.000000	-289224799417662.000000	-17451281422729856.000000
H	-103582176998567456.000000	-16438034371797950.000000	-1818309955323034.500000
H	20059057398453780.000000	1911638266930544.750000	3849059078077096.500000
3
2
O	26295066393202576.000000	439208924182461.875000	10134604178627802.000000
H	112301894631246992.000000	8597233689455638.000000	2803381888632905.000000
H	3998778880622163.500000	-2190254020443218.250000	992942974044889.750000
3
3
O	-29715466716527520.000000	77840747073521.734375	-17682934713931142.000000
H	-37618962544244384.000000	-18285266864758764.000000	68794593739595.039062
H	47741384092222080.000000	164617868736775.312500	7431071530294790.000000
3
4
O	20139682785721884.000000	542967666170379.125000	7810087324181377.000000
H	119510283946779872.000000	5379811040775823.000000	2712956318295721.500000
H	24505645432748540.000000	-2974751840783170.000000	1786095983694613.250000
3
5
O	-69837341964591256.000000	-802370117418939.875000	-35901872138922060.000000
H	-244657141999281056.000000	-32398584074813156.000000	-4076214453034509.000000
H	16713149581606518.000000	5376519560108451.000000	7298678334388920.000000
3
6
O	119661697608908240.000000	1381641083070229.000000	57558844073472384.000000
H	417938092056381568.000000	52225463887358952.000000	8038218215480160.000000
H	-32494531763926464.000000	-8449568735422221.000000	-8924606039344539.000000
3
7
O	-91071194302663824.000000	-1075437429619020.500000	-44664246446194280.000000
H	-322469140200287552.000000	-40307134467975520.000000	-5960263213115864.000000
H	21265554712387748.000000	6754340238843945.000000	7437348763708737.000000
3
8
O	108376797057100016.000000	1372023873354634.250000	53645548675684592.000000
H	398984574205422016.000000	47816278018432512.000000	7221846736328051.000000
H	-15187448328237746.000000	-8713199236402079.000000	-8816339670698843.000000
3
9
O	        -1.158815	         0.003416	        -0.397360
H	        -0.589605	         0.599133	         0.074779
H	        -0.661480	        -0.653506	        -0.869504
