3
0
O	        -1.039820	        -0.003412	        -0.397360
H	        -1.537154	         0.653503	         0.074779
H	        -1.609033	        -0.599135	        -0.869504
3
1
O	-35146273337474417229602262784828359336069530000000000000000.000000	-14087156769549540915447352868520345843294340000000000000000.000000	-819869639769354193105591711051092896015116500000000000000000.000000
H	-2820911950419800890419655226519729695581349000000000000000000.000000	-591726200464920086985949213874177797061207100000000000000000.000000	169330615142586957350487450280479784229659700000000000000000.000000
H	-2333401949495572781472147293165835838617210000000000000000000.000000	251184318699348331932593253646181902120073300000000000000000.000000	651450902450990716289865929862769777728247000000000000000000.000000
3
2
O	-742945902135499031856185173766137760205792000000000000000000.000000	14827871125676512053661403550152093810223740000000000000000.000000	1450745902248012073306031538817843182713440000000000000000000.000000
H	2281669770534670127433830006288529922979873000000000000000000.000000	1018233374496458748547714995001497057718467000000000000000000.000000	-457243753091086970193653267089981728008197300000000000000000.000000
H	4711265371825533223148694287432383401388188000000000000000000.000000	-461436802477480057669465454732147061970410900000000000000000.000000	-1443907726336479179675488973050011099335376000000000000000000.000000
3
3
O	763121259772612269587868136746196843285529000000000000000000.000000	-18259289691523698194106792697594003310145550000000000000000.000000	-1492944773085561450922603606799633960391071000000000000000000.000000
H	-2836021241852196083720314115097048537790235000000000000000000.000000	-1029941546481079211151807531455211433615724000000000000000000.000000	461914015113174485426624505704661529259832400000000000000000.000000
H	-5156022375804843467147239699362791092725624000000000000000000.000000	493414701707298797011119431543972663321604600000000000000000.000000	1469963646366674540237569063436026003711117000000000000000000.000000
3
4
O	271681454795192662916618933880715848950576300000000000000000.000000	14834054382752835872102197954277239677241630000000000000000.000000	721181403620801170642849841342679171103596400000000000000000.000000
H	3198159729337423739851034494103103038656985000000000000000000.000000	532594822304324765769503468166773600853690700000000000000000.000000	-103431774326249011911357937564423798160904100000000000000000.000000
H	1818599684624047569966934958357148268061208000000000000000000.000000	-212275493321254754497825745802104076722690600000000000000000.000000	-488949684454189140299028006321747228475814300000000000000000.000000
3
5
O	-2629836963528626661293247820411603733426252000000000000000000.000000	-69173920528349333240024675325940893585196440000000000000000.000000	-1279028930658816142908933717105968085076241000000000000000000.000000
H	-15481315943596527271406572543112890649428530000000000000000000.000000	-925545908193819756513370686524672749439395100000000000000000.000000	-281638889068560882968709834566659533485542100000000000000000.000000
H	-3320210151039293556157200549792839509416216000000000000000000.000000	430435569621843729541150515678170081814943900000000000000000.000000	7982033769061435483646663833713229052317913000000000000000.000000
3
6
O	3667993852697148878485223309910609007870375000000000000000000.000000	133789435490509956552291834676995254530100300000000000000000.000000	3727806738356315456774353270344855119697244000000000000000000.000000
H	28803081812699775664652631288861316992046480000000000000000000.000000	2661047903678781677690704471580092396960037000000000000000000.000000	-11099096560986573460741837406286779202604130000000000000000.000000
H	10736428059033980990420352767376144512764970000000000000000000.000000	-1228529665627335150256769344818427014404135000000000000000000.000000	-1560201388715577693565694803738858677732245000000000000000000.000000
3
7
O	-6990469524644408776447075908841885357590683000000000000000000.000000	-164047868820312939598359343503560312286331200000000000000000.000000	-295252549501089053279867705177640982472744700000000000000000.000000
H	-36077480847603819499208681413320354839035540000000000000000000.000000	-32492902628657870618952877856050147248323730000000000000000.000000	-1505054074727672358217280857168547733367177000000000000000000.000000
H	-3190906011958710928553941720774069961294651000000000000000000.000000	388691988814033058628905139624634110629480500000000000000000.000000	-2658484085565985810021630624569396153618038000000000000000000.000000
3
8
O	4610304119170439995532209865605989933900284000000000000000000.000000	144703011962633530368628145617425700552952000000000000000000.000000	3294834012402374021949674783815579516453545000000000000000000.000000
H	31568189303313165706953922610077227517430590000000000000000000.000000	2345000262196817682030836652786584031805934000000000000000000.000000	284066560664154275999899667579199144096153700000000000000000.000000
H	9461491529556492852046530156208044079780317000000000000000000.000000	-1114894172434125240374210488033242315174704000000000000000000.000000	-836084351940968822582945358936472183773778100000000000000000.000000
3
9
O	        -1.158815	         0.003416	        -0.397360
H	        -0.589605	         0.599133	         0.074779
H	        -0.661480	        -0.653506	        -0.869504
