3
0
O	        -1.039820	        -0.003412	        -0.397360
H	        -1.537154	         0.653503	         0.074779
H	        -1.609033	        -0.599135	        -0.869504
3
1
O	1066273980.388895	  -3092231.573401	 409067873.064816
H	1166214350.382549	 472961858.857035	  55653625.012778
H	-2004172396.826316	  41843725.451283	 -66156122.545638
3
2
O	-455890514.610009	    -90116.962127	-179213308.207598
H	-730010876.778277	-197251034.451029	 -26620401.605030
H	 705700625.361402	  -8210697.547106	  24847112.108691
3
3
O	 649731950.617720	  -5582209.512998	 239968854.624580
H	 105922224.749213	 302844507.274756	  25990406.975006
H	-1614835888.435366	  50437045.631725	 -51109167.192329
3
4
O	-340031613.223585	  -1132432.977030	-139180018.557073
H	-720376553.723955	-145228248.203510	 -21396022.042305
H	 409708210.357740	   1636738.023503	  17961980.780649
3
5
O	-400295041.219267	  -9427807.968209	-211577029.378571
H	-2188148063.892975	-161372764.450043	 -35367857.367174
H	-410838999.328945	  62091872.075510	  22050255.979217
3
6
O	 641223425.500403	  16180070.886001	 343395542.388882
H	3682463172.094249	 255678866.764676	  58502316.340690
H	 774876353.751968	-107092322.471656	 -33756974.041598
3
7
O	-1154461368.542021	 -21033280.836039	-564986457.394696
H	-5286064087.159967	-465395379.720242	 -96587671.380771
H	-495265519.625933	 131501120.913982	  54925857.734932
3
8
O	 811356439.118309	  20154631.182378	 432911254.143261
H	4606967305.201921	 324125538.824681	  73550361.287902
H	 945660915.958165	-133197226.057512	 -42930400.240477
3
9
O	        -1.158815	         0.003416	        -0.397360
H	        -0.589605	         0.599133	         0.074779
H	        -0.661480	        -0.653506	        -0.869504
