3
0
O	        -1.039820	        -0.003412	        -0.397360
H	        -1.537154	         0.653503	         0.074779
H	        -1.609033	        -0.599135	        -0.869504
3
1
O	-71433301714933307290544286096412984429594650000000000.000000	848346439683760502735117795739985013386126800000000.000000	-166824803629833778406378685647176561710013900000000000.000000
H	-57856887147038407244605952520573146577770170000000000.000000	-149933981752285738153554666194189783329040300000000000.000000	34528470835488714609912660544927164791656610000000000.000000
H	39793751946681901218016812298168059191774590000000000.000000	21577760219174494923627719908250500433108980000000000.000000	132693347545744748090520459430885551907248700000000000.000000
3
2
O	87908883642934373220031103126070748944951340000000000.000000	-380426780707549968415347737047461261612432200000000.000000	177188366354895725180628279870129278513488200000000000.000000
H	161853343236743858218841574834162732181448200000000000.000000	157452841398672711973212548584571546251009300000000000.000000	-33282043842659534993522732641445677587289270000000000.000000
H	-12703408576253438771631598567206023688789800000000000.000000	-24968180304852174311691942247486108344074420000000000.000000	-134671185946766835682909718484259380176700800000000000.000000
3
3
O	-60438544343297994147476348204048313826780150000000000.000000	917658679889948592168829774365829343310215600000000.000000	-149262818721277859618203315750661945258272800000000000.000000
H	-21433407476196284911212095658591560531947570000000000.000000	-134718608417393113125082875431720739256556900000000000.000000	31895888384559847672437824222503148969175170000000000.000000
H	45001349852029628789747297234020110161869410000000000.000000	18662519952053163718914837421309270720031330000000000.000000	120576126645052830156535193052598531404378900000000000.000000
3
4
O	-4140805219775448570719978352136603444263845000000000.000000	330524195085110811985265359530626569784941100000000.000000	-21101259226287065425549769176667239116444750000000000.000000
H	35374124904008757239971266077288401762897320000000000.000000	-19764266508556968964460551192356032992894180000000000.000000	5778661842061355099875503196782524532757388000000000.000000
H	18247769738071499468367383004704437636341870000000000.000000	1823914608976445132051877908348830268495706000000000.000000	19391220588630182736057583439231716379115460000000000.000000
3
5
O	-28615088015041354163723190253366205522275310000000000.000000	-1464516497192290056057818287249457727396587000000000.000000	33254475880182795986793158276278636909333700000000000.000000
H	-255492138947117019966597858035865533841403500000000000.000000	32918367370170154564148617320409208588717000000000000.000000	-17393935821609717421849290536973576331723280000000000.000000
H	-55402914064577267733896546915161637432247260000000000.000000	-481092086926839315667447083310693044881623300000000.000000	-45869104665880116294507322465488702555572530000000000.000000
3
6
O	30796695443073322343440522066817192213223540000000000.000000	1439060292225668339336546717977329338638116000000000.000000	-16063271643117085603819686433810577036915100000000000.000000
H	264586730940697661688615620656018796263493100000000000.000000	-18417661170602343106466514528532687999405820000000000.000000	13177206280610723276148987646981473738259340000000000.000000
H	68190796942877189937526605362448246770734460000000000.000000	-2642776629384781597997617526142062225499126000000000.000000	30978523226113308061283036618968565594626880000000000.000000
3
7
O	-13741029425333933469707514920274494182341040000000000.000000	-2134736651479751223866103749040594304937348000000000.000000	12567911145533662529953134807006411187952050000000000.000000
H	-356650492210600293863022142610214748470289200000000000.000000	21638939317467430203771710277023752328032310000000000.000000	-11470835216273583531635326006760875747267320000000000.000000
H	-178737350931673052381290506419262615719372600000000000.000000	9382869438798788077181423311854106536699478000000000.000000	-26382900380041614486286683310536757902886690000000000.000000
3
8
O	28666791270363347041891772825809243198315190000000000.000000	2037904513923569499838556166117356733960307000000000.000000	-35560593175288512408419444322930343048507820000000000.000000
H	347076736563432002218754888615725690862834800000000000.000000	-38258182754733752436323909832610785826944870000000000.000000	19610651220825115176422290079281557652578720000000000.000000
H	112003897479819783275464607550977924514970200000000000.000000	-2618040796233701145951491064216938794928635000000000.000000	50916992826296649452719609211863704714925590000000000.000000
3
9
O	        -1.158815	         0.003416	        -0.397360
H	        -0.589605	         0.599133	         0.074779
H	        -0.661480	        -0.653506	        -0.869504
